
---------- Begin Simulation Statistics ----------
simSeconds                                   0.000088                       # Number of seconds simulated (Second)
simTicks                                     87845000                       # Number of ticks simulated (Tick)
finalTick                                    87845000                       # Number of ticks from beginning of simulation (restored from checkpoints and never reset) (Tick)
simFreq                                  1000000000000                       # The number of ticks per simulated second ((Tick/Second))
hostSeconds                                      0.11                       # Real time elapsed on the host (Second)
hostTickRate                                835979293                       # The number of ticks simulated per host second (ticks/s) ((Tick/Second))
hostMemory                                    8510828                       # Number of bytes of host memory used (Byte)
simInsts                                        13716                       # Number of instructions simulated (Count)
simOps                                          13740                       # Number of ops (including micro ops) simulated (Count)
hostInstRate                                   130385                       # Simulator instruction rate (inst/s) ((Count/Second))
hostOpRate                                     130602                       # Simulator op (including micro ops) rate (op/s) ((Count/Second))
system.bridge.power_state.pwrStateResidencyTicks::UNDEFINED     87845000                       # Cumulative time (in ticks) in various power states (Tick)
system.clk_domain.clock                          1000                       # Clock period in ticks (Tick)
system.cpu.numCycles                            87846                       # Number of cpu cycles simulated (Cycle)
system.cpu.numWorkItemsStarted                      0                       # Number of work items this cpu started (Count)
system.cpu.numWorkItemsCompleted                    0                       # Number of work items this cpu completed (Count)
system.cpu.instsAdded                           16436                       # Number of instructions added to the IQ (excludes non-spec) (Count)
system.cpu.nonSpecInstsAdded                      116                       # Number of non-speculative instructions added to the IQ (Count)
system.cpu.instsIssued                          16026                       # Number of instructions issued (Count)
system.cpu.squashedInstsIssued                     22                       # Number of squashed instructions issued (Count)
system.cpu.squashedInstsExamined                 2811                       # Number of squashed instructions iterated over during squash; mainly for profiling (Count)
system.cpu.squashedOperandsExamined              1197                       # Number of squashed operands that are examined and possibly removed from graph (Count)
system.cpu.squashedNonSpecRemoved                   7                       # Number of squashed non-spec instructions that were removed (Count)
system.cpu.numIssuedDist::samples               36529                       # Number of insts issued each cycle (Count)
system.cpu.numIssuedDist::mean               0.438720                       # Number of insts issued each cycle (Count)
system.cpu.numIssuedDist::stdev              0.975290                       # Number of insts issued each cycle (Count)
system.cpu.numIssuedDist::underflows                0      0.00%      0.00% # Number of insts issued each cycle (Count)
system.cpu.numIssuedDist::0                     28669     78.48%     78.48% # Number of insts issued each cycle (Count)
system.cpu.numIssuedDist::1                      3272      8.96%     87.44% # Number of insts issued each cycle (Count)
system.cpu.numIssuedDist::2                      2141      5.86%     93.30% # Number of insts issued each cycle (Count)
system.cpu.numIssuedDist::3                      1316      3.60%     96.90% # Number of insts issued each cycle (Count)
system.cpu.numIssuedDist::4                      1131      3.10%    100.00% # Number of insts issued each cycle (Count)
system.cpu.numIssuedDist::overflows                 0      0.00%    100.00% # Number of insts issued each cycle (Count)
system.cpu.numIssuedDist::min_value                 0                       # Number of insts issued each cycle (Count)
system.cpu.numIssuedDist::max_value                 4                       # Number of insts issued each cycle (Count)
system.cpu.numIssuedDist::total                 36529                       # Number of insts issued each cycle (Count)
system.cpu.statFuBusy::No_OpClass                   0      0.00%      0.00% # attempts to use FU when none available (Count)
system.cpu.statFuBusy::IntAlu                       0      0.00%      0.00% # attempts to use FU when none available (Count)
system.cpu.statFuBusy::IntMult                      0      0.00%      0.00% # attempts to use FU when none available (Count)
system.cpu.statFuBusy::IntDiv                     240     52.98%     52.98% # attempts to use FU when none available (Count)
system.cpu.statFuBusy::FloatAdd                     0      0.00%     52.98% # attempts to use FU when none available (Count)
system.cpu.statFuBusy::FloatCmp                     0      0.00%     52.98% # attempts to use FU when none available (Count)
system.cpu.statFuBusy::FloatCvt                     0      0.00%     52.98% # attempts to use FU when none available (Count)
system.cpu.statFuBusy::FloatMult                    0      0.00%     52.98% # attempts to use FU when none available (Count)
system.cpu.statFuBusy::FloatMultAcc                 0      0.00%     52.98% # attempts to use FU when none available (Count)
system.cpu.statFuBusy::FloatDiv                     0      0.00%     52.98% # attempts to use FU when none available (Count)
system.cpu.statFuBusy::FloatMisc                    0      0.00%     52.98% # attempts to use FU when none available (Count)
system.cpu.statFuBusy::FloatSqrt                    0      0.00%     52.98% # attempts to use FU when none available (Count)
system.cpu.statFuBusy::SimdAdd                      0      0.00%     52.98% # attempts to use FU when none available (Count)
system.cpu.statFuBusy::SimdAddAcc                   0      0.00%     52.98% # attempts to use FU when none available (Count)
system.cpu.statFuBusy::SimdAlu                      0      0.00%     52.98% # attempts to use FU when none available (Count)
system.cpu.statFuBusy::SimdCmp                      0      0.00%     52.98% # attempts to use FU when none available (Count)
system.cpu.statFuBusy::SimdCvt                      0      0.00%     52.98% # attempts to use FU when none available (Count)
system.cpu.statFuBusy::SimdMisc                     0      0.00%     52.98% # attempts to use FU when none available (Count)
system.cpu.statFuBusy::SimdMult                     0      0.00%     52.98% # attempts to use FU when none available (Count)
system.cpu.statFuBusy::SimdMultAcc                  0      0.00%     52.98% # attempts to use FU when none available (Count)
system.cpu.statFuBusy::SimdShift                    0      0.00%     52.98% # attempts to use FU when none available (Count)
system.cpu.statFuBusy::SimdShiftAcc                 0      0.00%     52.98% # attempts to use FU when none available (Count)
system.cpu.statFuBusy::SimdDiv                      0      0.00%     52.98% # attempts to use FU when none available (Count)
system.cpu.statFuBusy::SimdSqrt                     0      0.00%     52.98% # attempts to use FU when none available (Count)
system.cpu.statFuBusy::SimdFloatAdd                 0      0.00%     52.98% # attempts to use FU when none available (Count)
system.cpu.statFuBusy::SimdFloatAlu                 0      0.00%     52.98% # attempts to use FU when none available (Count)
system.cpu.statFuBusy::SimdFloatCmp                 0      0.00%     52.98% # attempts to use FU when none available (Count)
system.cpu.statFuBusy::SimdFloatCvt                 0      0.00%     52.98% # attempts to use FU when none available (Count)
system.cpu.statFuBusy::SimdFloatDiv                 0      0.00%     52.98% # attempts to use FU when none available (Count)
system.cpu.statFuBusy::SimdFloatMisc                0      0.00%     52.98% # attempts to use FU when none available (Count)
system.cpu.statFuBusy::SimdFloatMult                0      0.00%     52.98% # attempts to use FU when none available (Count)
system.cpu.statFuBusy::SimdFloatMultAcc             0      0.00%     52.98% # attempts to use FU when none available (Count)
system.cpu.statFuBusy::SimdFloatSqrt                0      0.00%     52.98% # attempts to use FU when none available (Count)
system.cpu.statFuBusy::SimdReduceAdd                0      0.00%     52.98% # attempts to use FU when none available (Count)
system.cpu.statFuBusy::SimdReduceAlu                0      0.00%     52.98% # attempts to use FU when none available (Count)
system.cpu.statFuBusy::SimdReduceCmp                0      0.00%     52.98% # attempts to use FU when none available (Count)
system.cpu.statFuBusy::SimdFloatReduceAdd            0      0.00%     52.98% # attempts to use FU when none available (Count)
system.cpu.statFuBusy::SimdFloatReduceCmp            0      0.00%     52.98% # attempts to use FU when none available (Count)
system.cpu.statFuBusy::SimdAes                      0      0.00%     52.98% # attempts to use FU when none available (Count)
system.cpu.statFuBusy::SimdAesMix                   0      0.00%     52.98% # attempts to use FU when none available (Count)
system.cpu.statFuBusy::SimdSha1Hash                 0      0.00%     52.98% # attempts to use FU when none available (Count)
system.cpu.statFuBusy::SimdSha1Hash2                0      0.00%     52.98% # attempts to use FU when none available (Count)
system.cpu.statFuBusy::SimdSha256Hash               0      0.00%     52.98% # attempts to use FU when none available (Count)
system.cpu.statFuBusy::SimdSha256Hash2              0      0.00%     52.98% # attempts to use FU when none available (Count)
system.cpu.statFuBusy::SimdShaSigma2                0      0.00%     52.98% # attempts to use FU when none available (Count)
system.cpu.statFuBusy::SimdShaSigma3                0      0.00%     52.98% # attempts to use FU when none available (Count)
system.cpu.statFuBusy::SimdPredAlu                  0      0.00%     52.98% # attempts to use FU when none available (Count)
system.cpu.statFuBusy::MemRead                      0      0.00%     52.98% # attempts to use FU when none available (Count)
system.cpu.statFuBusy::MemWrite                   211     46.58%     99.56% # attempts to use FU when none available (Count)
system.cpu.statFuBusy::FloatMemRead                 0      0.00%     99.56% # attempts to use FU when none available (Count)
system.cpu.statFuBusy::FloatMemWrite                2      0.44%    100.00% # attempts to use FU when none available (Count)
system.cpu.statFuBusy::IprAccess                    0      0.00%    100.00% # attempts to use FU when none available (Count)
system.cpu.statFuBusy::InstPrefetch                 0      0.00%    100.00% # attempts to use FU when none available (Count)
system.cpu.statIssuedInstType_0::No_OpClass           59      0.37%      0.37% # Number of instructions issued per FU type, per thread (Count)
system.cpu.statIssuedInstType_0::IntAlu         10130     63.21%     63.58% # Number of instructions issued per FU type, per thread (Count)
system.cpu.statIssuedInstType_0::IntMult           12      0.07%     63.65% # Number of instructions issued per FU type, per thread (Count)
system.cpu.statIssuedInstType_0::IntDiv            31      0.19%     63.85% # Number of instructions issued per FU type, per thread (Count)
system.cpu.statIssuedInstType_0::FloatAdd            0      0.00%     63.85% # Number of instructions issued per FU type, per thread (Count)
system.cpu.statIssuedInstType_0::FloatCmp            0      0.00%     63.85% # Number of instructions issued per FU type, per thread (Count)
system.cpu.statIssuedInstType_0::FloatCvt            0      0.00%     63.85% # Number of instructions issued per FU type, per thread (Count)
system.cpu.statIssuedInstType_0::FloatMult            0      0.00%     63.85% # Number of instructions issued per FU type, per thread (Count)
system.cpu.statIssuedInstType_0::FloatMultAcc            0      0.00%     63.85% # Number of instructions issued per FU type, per thread (Count)
system.cpu.statIssuedInstType_0::FloatDiv            0      0.00%     63.85% # Number of instructions issued per FU type, per thread (Count)
system.cpu.statIssuedInstType_0::FloatMisc            0      0.00%     63.85% # Number of instructions issued per FU type, per thread (Count)
system.cpu.statIssuedInstType_0::FloatSqrt            0      0.00%     63.85% # Number of instructions issued per FU type, per thread (Count)
system.cpu.statIssuedInstType_0::SimdAdd            0      0.00%     63.85% # Number of instructions issued per FU type, per thread (Count)
system.cpu.statIssuedInstType_0::SimdAddAcc            0      0.00%     63.85% # Number of instructions issued per FU type, per thread (Count)
system.cpu.statIssuedInstType_0::SimdAlu            0      0.00%     63.85% # Number of instructions issued per FU type, per thread (Count)
system.cpu.statIssuedInstType_0::SimdCmp            0      0.00%     63.85% # Number of instructions issued per FU type, per thread (Count)
system.cpu.statIssuedInstType_0::SimdCvt            0      0.00%     63.85% # Number of instructions issued per FU type, per thread (Count)
system.cpu.statIssuedInstType_0::SimdMisc            0      0.00%     63.85% # Number of instructions issued per FU type, per thread (Count)
system.cpu.statIssuedInstType_0::SimdMult            0      0.00%     63.85% # Number of instructions issued per FU type, per thread (Count)
system.cpu.statIssuedInstType_0::SimdMultAcc            0      0.00%     63.85% # Number of instructions issued per FU type, per thread (Count)
system.cpu.statIssuedInstType_0::SimdShift            0      0.00%     63.85% # Number of instructions issued per FU type, per thread (Count)
system.cpu.statIssuedInstType_0::SimdShiftAcc            0      0.00%     63.85% # Number of instructions issued per FU type, per thread (Count)
system.cpu.statIssuedInstType_0::SimdDiv            0      0.00%     63.85% # Number of instructions issued per FU type, per thread (Count)
system.cpu.statIssuedInstType_0::SimdSqrt            0      0.00%     63.85% # Number of instructions issued per FU type, per thread (Count)
system.cpu.statIssuedInstType_0::SimdFloatAdd            0      0.00%     63.85% # Number of instructions issued per FU type, per thread (Count)
system.cpu.statIssuedInstType_0::SimdFloatAlu            0      0.00%     63.85% # Number of instructions issued per FU type, per thread (Count)
system.cpu.statIssuedInstType_0::SimdFloatCmp            0      0.00%     63.85% # Number of instructions issued per FU type, per thread (Count)
system.cpu.statIssuedInstType_0::SimdFloatCvt            0      0.00%     63.85% # Number of instructions issued per FU type, per thread (Count)
system.cpu.statIssuedInstType_0::SimdFloatDiv            0      0.00%     63.85% # Number of instructions issued per FU type, per thread (Count)
system.cpu.statIssuedInstType_0::SimdFloatMisc            0      0.00%     63.85% # Number of instructions issued per FU type, per thread (Count)
system.cpu.statIssuedInstType_0::SimdFloatMult            0      0.00%     63.85% # Number of instructions issued per FU type, per thread (Count)
system.cpu.statIssuedInstType_0::SimdFloatMultAcc            0      0.00%     63.85% # Number of instructions issued per FU type, per thread (Count)
system.cpu.statIssuedInstType_0::SimdFloatSqrt            0      0.00%     63.85% # Number of instructions issued per FU type, per thread (Count)
system.cpu.statIssuedInstType_0::SimdReduceAdd            0      0.00%     63.85% # Number of instructions issued per FU type, per thread (Count)
system.cpu.statIssuedInstType_0::SimdReduceAlu            0      0.00%     63.85% # Number of instructions issued per FU type, per thread (Count)
system.cpu.statIssuedInstType_0::SimdReduceCmp            0      0.00%     63.85% # Number of instructions issued per FU type, per thread (Count)
system.cpu.statIssuedInstType_0::SimdFloatReduceAdd            0      0.00%     63.85% # Number of instructions issued per FU type, per thread (Count)
system.cpu.statIssuedInstType_0::SimdFloatReduceCmp            0      0.00%     63.85% # Number of instructions issued per FU type, per thread (Count)
system.cpu.statIssuedInstType_0::SimdAes            0      0.00%     63.85% # Number of instructions issued per FU type, per thread (Count)
system.cpu.statIssuedInstType_0::SimdAesMix            0      0.00%     63.85% # Number of instructions issued per FU type, per thread (Count)
system.cpu.statIssuedInstType_0::SimdSha1Hash            0      0.00%     63.85% # Number of instructions issued per FU type, per thread (Count)
system.cpu.statIssuedInstType_0::SimdSha1Hash2            0      0.00%     63.85% # Number of instructions issued per FU type, per thread (Count)
system.cpu.statIssuedInstType_0::SimdSha256Hash            0      0.00%     63.85% # Number of instructions issued per FU type, per thread (Count)
system.cpu.statIssuedInstType_0::SimdSha256Hash2            0      0.00%     63.85% # Number of instructions issued per FU type, per thread (Count)
system.cpu.statIssuedInstType_0::SimdShaSigma2            0      0.00%     63.85% # Number of instructions issued per FU type, per thread (Count)
system.cpu.statIssuedInstType_0::SimdShaSigma3            0      0.00%     63.85% # Number of instructions issued per FU type, per thread (Count)
system.cpu.statIssuedInstType_0::SimdPredAlu            0      0.00%     63.85% # Number of instructions issued per FU type, per thread (Count)
system.cpu.statIssuedInstType_0::MemRead         3363     20.98%     84.83% # Number of instructions issued per FU type, per thread (Count)
system.cpu.statIssuedInstType_0::MemWrite         2419     15.09%     99.93% # Number of instructions issued per FU type, per thread (Count)
system.cpu.statIssuedInstType_0::FloatMemRead            0      0.00%     99.93% # Number of instructions issued per FU type, per thread (Count)
system.cpu.statIssuedInstType_0::FloatMemWrite           12      0.07%    100.00% # Number of instructions issued per FU type, per thread (Count)
system.cpu.statIssuedInstType_0::IprAccess            0      0.00%    100.00% # Number of instructions issued per FU type, per thread (Count)
system.cpu.statIssuedInstType_0::InstPrefetch            0      0.00%    100.00% # Number of instructions issued per FU type, per thread (Count)
system.cpu.statIssuedInstType_0::total          16026                       # Number of instructions issued per FU type, per thread (Count)
system.cpu.issueRate                         0.182433                       # Inst issue rate ((Count/Cycle))
system.cpu.fuBusy                                 453                       # FU busy when requested (Count)
system.cpu.fuBusyRate                        0.028267                       # FU busy rate (busy events/executed inst) ((Count/Count))
system.cpu.intInstQueueReads                    69030                       # Number of integer instruction queue reads (Count)
system.cpu.intInstQueueWrites                   19367                       # Number of integer instruction queue writes (Count)
system.cpu.intInstQueueWakeupAccesses           15397                       # Number of integer instruction queue wakeup accesses (Count)
system.cpu.fpInstQueueReads                        26                       # Number of floating instruction queue reads (Count)
system.cpu.fpInstQueueWrites                       12                       # Number of floating instruction queue writes (Count)
system.cpu.fpInstQueueWakeupAccesses               12                       # Number of floating instruction queue wakeup accesses (Count)
system.cpu.vecInstQueueReads                        0                       # Number of vector instruction queue reads (Count)
system.cpu.vecInstQueueWrites                       0                       # Number of vector instruction queue writes (Count)
system.cpu.vecInstQueueWakeupAccesses               0                       # Number of vector instruction queue wakeup accesses (Count)
system.cpu.intAluAccesses                       16406                       # Number of integer alu accesses (Count)
system.cpu.fpAluAccesses                           14                       # Number of floating point alu accesses (Count)
system.cpu.vecAluAccesses                           0                       # Number of vector alu accesses (Count)
system.cpu.numInsts                             15745                       # Number of executed instructions (Count)
system.cpu.numLoadInsts                          3265                       # Number of load instructions executed (Count)
system.cpu.numSquashedInsts                       281                       # Number of squashed instructions skipped in execute (Count)
system.cpu.numSwp                                   0                       # Number of swp insts executed (Count)
system.cpu.numNop                                   0                       # Number of nop insts executed (Count)
system.cpu.numRefs                               5713                       # Number of memory reference insts executed (Count)
system.cpu.numBranches                           3324                       # Number of branches executed (Count)
system.cpu.numStoreInsts                         2448                       # Number of stores executed (Count)
system.cpu.numRate                           0.179234                       # Inst execution rate ((Count/Cycle))
system.cpu.timesIdled                             789                       # Number of times that the entire CPU went into an idle state and unscheduled itself (Count)
system.cpu.idleCycles                           51317                       # Total number of cycles that the CPU has spent unscheduled due to idling (Cycle)
system.cpu.committedInsts                       13716                       # Number of Instructions Simulated (Count)
system.cpu.committedOps                         13740                       # Number of Ops (including micro ops) Simulated (Count)
system.cpu.cpi                               6.404637                       # CPI: Cycles Per Instruction ((Cycle/Count))
system.cpu.totalCpi                          6.404637                       # CPI: Total CPI of All Threads ((Cycle/Count))
system.cpu.ipc                               0.156137                       # IPC: Instructions Per Cycle ((Count/Cycle))
system.cpu.totalIpc                          0.156137                       # IPC: Total IPC of All Threads ((Count/Cycle))
system.cpu.intRegfileReads                      18666                       # Number of integer regfile reads (Count)
system.cpu.intRegfileWrites                      9978                       # Number of integer regfile writes (Count)
system.cpu.fpRegfileReads                          12                       # Number of floating regfile reads (Count)
system.cpu.miscRegfileReads                        22                       # number of misc regfile reads (Count)
system.cpu.MemDepUnit__0.insertedLoads           3352                       # Number of loads inserted to the mem dependence unit. (Count)
system.cpu.MemDepUnit__0.insertedStores          2517                       # Number of stores inserted to the mem dependence unit. (Count)
system.cpu.MemDepUnit__0.conflictingLoads          236                       # Number of conflicting loads. (Count)
system.cpu.MemDepUnit__0.conflictingStores           42                       # Number of conflicting stores. (Count)
system.cpu.MemDepUnit__1.insertedLoads              0                       # Number of loads inserted to the mem dependence unit. (Count)
system.cpu.MemDepUnit__1.insertedStores             0                       # Number of stores inserted to the mem dependence unit. (Count)
system.cpu.MemDepUnit__1.conflictingLoads            0                       # Number of conflicting loads. (Count)
system.cpu.MemDepUnit__1.conflictingStores            0                       # Number of conflicting stores. (Count)
system.cpu.MemDepUnit__2.insertedLoads              0                       # Number of loads inserted to the mem dependence unit. (Count)
system.cpu.MemDepUnit__2.insertedStores             0                       # Number of stores inserted to the mem dependence unit. (Count)
system.cpu.MemDepUnit__2.conflictingLoads            0                       # Number of conflicting loads. (Count)
system.cpu.MemDepUnit__2.conflictingStores            0                       # Number of conflicting stores. (Count)
system.cpu.MemDepUnit__3.insertedLoads              0                       # Number of loads inserted to the mem dependence unit. (Count)
system.cpu.MemDepUnit__3.insertedStores             0                       # Number of stores inserted to the mem dependence unit. (Count)
system.cpu.MemDepUnit__3.conflictingLoads            0                       # Number of conflicting loads. (Count)
system.cpu.MemDepUnit__3.conflictingStores            0                       # Number of conflicting stores. (Count)
system.cpu.branchPred.lookups                    4413                       # Number of BP lookups (Count)
system.cpu.branchPred.condPredicted              3293                       # Number of conditional branches predicted (Count)
system.cpu.branchPred.condIncorrect               632                       # Number of conditional branches incorrect (Count)
system.cpu.branchPred.BTBLookups                 1645                       # Number of BTB lookups (Count)
system.cpu.branchPred.BTBHits                    1403                       # Number of BTB hits (Count)
system.cpu.branchPred.BTBHitRatio            0.852888                       # BTB Hit Ratio (Ratio)
system.cpu.branchPred.RASUsed                     398                       # Number of times the RAS was used to get a target. (Count)
system.cpu.branchPred.RASIncorrect                  0                       # Number of incorrect RAS predictions. (Count)
system.cpu.branchPred.indirectLookups             149                       # Number of indirect predictor lookups. (Count)
system.cpu.branchPred.indirectHits                 49                       # Number of indirect target hits. (Count)
system.cpu.branchPred.indirectMisses              100                       # Number of indirect misses. (Count)
system.cpu.branchPred.indirectMispredicted           44                       # Number of mispredicted indirect branches. (Count)
system.cpu.branchPred.tage.longestMatchProviderCorrect          403                       # Number of times TAGE Longest Match is the provider and the prediction is correct (Count)
system.cpu.branchPred.tage.altMatchProviderCorrect            0                       # Number of times TAGE Alt Match is the provider and the prediction is correct (Count)
system.cpu.branchPred.tage.bimodalAltMatchProviderCorrect           11                       # Number of times TAGE Alt Match is the bimodal and it is the provider and the prediction is correct (Count)
system.cpu.branchPred.tage.bimodalProviderCorrect         1427                       # Number of times there are no hits on the TAGE tables and the bimodal prediction is correct (Count)
system.cpu.branchPred.tage.longestMatchProviderWrong           33                       # Number of times TAGE Longest Match is the provider and the prediction is wrong (Count)
system.cpu.branchPred.tage.altMatchProviderWrong            0                       # Number of times TAGE Alt Match is the provider and the prediction is wrong (Count)
system.cpu.branchPred.tage.bimodalAltMatchProviderWrong           10                       # Number of times TAGE Alt Match is the bimodal and it is the provider and the prediction is wrong (Count)
system.cpu.branchPred.tage.bimodalProviderWrong          297                       # Number of times there are no hits on the TAGE tables and the bimodal prediction is wrong (Count)
system.cpu.branchPred.tage.altMatchProviderWouldHaveHit           16                       # Number of times TAGE Longest Match is the provider, the prediction is wrong and Alt Match prediction was correct (Count)
system.cpu.branchPred.tage.longestMatchProviderWouldHaveHit            8                       # Number of times TAGE Alt Match is the provider, the prediction is wrong and Longest Match prediction was correct (Count)
system.cpu.branchPred.tage.longestMatchProvider::0            0                       # TAGE provider for longest match (Count)
system.cpu.branchPred.tage.longestMatchProvider::1          239                       # TAGE provider for longest match (Count)
system.cpu.branchPred.tage.longestMatchProvider::2          114                       # TAGE provider for longest match (Count)
system.cpu.branchPred.tage.longestMatchProvider::3           74                       # TAGE provider for longest match (Count)
system.cpu.branchPred.tage.longestMatchProvider::4            4                       # TAGE provider for longest match (Count)
system.cpu.branchPred.tage.longestMatchProvider::5            1                       # TAGE provider for longest match (Count)
system.cpu.branchPred.tage.longestMatchProvider::6            0                       # TAGE provider for longest match (Count)
system.cpu.branchPred.tage.longestMatchProvider::7            4                       # TAGE provider for longest match (Count)
system.cpu.branchPred.tage.altMatchProvider::0          400                       # TAGE provider for alt match (Count)
system.cpu.branchPred.tage.altMatchProvider::1           26                       # TAGE provider for alt match (Count)
system.cpu.branchPred.tage.altMatchProvider::2            5                       # TAGE provider for alt match (Count)
system.cpu.branchPred.tage.altMatchProvider::3            2                       # TAGE provider for alt match (Count)
system.cpu.branchPred.tage.altMatchProvider::4            3                       # TAGE provider for alt match (Count)
system.cpu.branchPred.tage.altMatchProvider::5            0                       # TAGE provider for alt match (Count)
system.cpu.branchPred.tage.altMatchProvider::6            0                       # TAGE provider for alt match (Count)
system.cpu.branchPred.tage.altMatchProvider::7            0                       # TAGE provider for alt match (Count)
system.cpu.commit.commitSquashedInsts            2790                       # The number of squashed insts skipped by commit (Count)
system.cpu.commit.commitNonSpecStalls             109                       # The number of times commit has been forced to stall to communicate backwards (Count)
system.cpu.commit.branchMispredicts               425                       # The number of times a branch was mispredicted (Count)
system.cpu.commit.numCommittedDist::samples        35560                       # Number of insts commited each cycle (Count)
system.cpu.commit.numCommittedDist::mean     0.386389                       # Number of insts commited each cycle (Count)
system.cpu.commit.numCommittedDist::stdev     0.967671                       # Number of insts commited each cycle (Count)
system.cpu.commit.numCommittedDist::underflows            0      0.00%      0.00% # Number of insts commited each cycle (Count)
system.cpu.commit.numCommittedDist::0           29155     81.99%     81.99% # Number of insts commited each cycle (Count)
system.cpu.commit.numCommittedDist::1            2795      7.86%     89.85% # Number of insts commited each cycle (Count)
system.cpu.commit.numCommittedDist::2            1258      3.54%     93.39% # Number of insts commited each cycle (Count)
system.cpu.commit.numCommittedDist::3             979      2.75%     96.14% # Number of insts commited each cycle (Count)
system.cpu.commit.numCommittedDist::4            1373      3.86%    100.00% # Number of insts commited each cycle (Count)
system.cpu.commit.numCommittedDist::overflows            0      0.00%    100.00% # Number of insts commited each cycle (Count)
system.cpu.commit.numCommittedDist::min_value            0                       # Number of insts commited each cycle (Count)
system.cpu.commit.numCommittedDist::max_value            4                       # Number of insts commited each cycle (Count)
system.cpu.commit.numCommittedDist::total        35560                       # Number of insts commited each cycle (Count)
system.cpu.commit.instsCommitted                13716                       # Number of instructions committed (Count)
system.cpu.commit.opsCommitted                  13740                       # Number of ops (including micro ops) committed (Count)
system.cpu.commit.memRefs                        5014                       # Number of memory references committed (Count)
system.cpu.commit.loads                          2663                       # Number of loads committed (Count)
system.cpu.commit.amos                             26                       # Number of atomic instructions committed (Count)
system.cpu.commit.membars                          49                       # Number of memory barriers committed (Count)
system.cpu.commit.branches                       2891                       # Number of branches committed (Count)
system.cpu.commit.vectorInstructions                0                       # Number of committed Vector instructions. (Count)
system.cpu.commit.floating                         12                       # Number of committed floating point instructions. (Count)
system.cpu.commit.integer                       13555                       # Number of committed integer instructions. (Count)
system.cpu.commit.functionCalls                   265                       # Number of function calls committed. (Count)
system.cpu.commit.committedInstType_0::No_OpClass           49      0.36%      0.36% # Class of committed instruction (Count)
system.cpu.commit.committedInstType_0::IntAlu         8634     62.84%     63.20% # Class of committed instruction (Count)
system.cpu.commit.committedInstType_0::IntMult           12      0.09%     63.28% # Class of committed instruction (Count)
system.cpu.commit.committedInstType_0::IntDiv           31      0.23%     63.51% # Class of committed instruction (Count)
system.cpu.commit.committedInstType_0::FloatAdd            0      0.00%     63.51% # Class of committed instruction (Count)
system.cpu.commit.committedInstType_0::FloatCmp            0      0.00%     63.51% # Class of committed instruction (Count)
system.cpu.commit.committedInstType_0::FloatCvt            0      0.00%     63.51% # Class of committed instruction (Count)
system.cpu.commit.committedInstType_0::FloatMult            0      0.00%     63.51% # Class of committed instruction (Count)
system.cpu.commit.committedInstType_0::FloatMultAcc            0      0.00%     63.51% # Class of committed instruction (Count)
system.cpu.commit.committedInstType_0::FloatDiv            0      0.00%     63.51% # Class of committed instruction (Count)
system.cpu.commit.committedInstType_0::FloatMisc            0      0.00%     63.51% # Class of committed instruction (Count)
system.cpu.commit.committedInstType_0::FloatSqrt            0      0.00%     63.51% # Class of committed instruction (Count)
system.cpu.commit.committedInstType_0::SimdAdd            0      0.00%     63.51% # Class of committed instruction (Count)
system.cpu.commit.committedInstType_0::SimdAddAcc            0      0.00%     63.51% # Class of committed instruction (Count)
system.cpu.commit.committedInstType_0::SimdAlu            0      0.00%     63.51% # Class of committed instruction (Count)
system.cpu.commit.committedInstType_0::SimdCmp            0      0.00%     63.51% # Class of committed instruction (Count)
system.cpu.commit.committedInstType_0::SimdCvt            0      0.00%     63.51% # Class of committed instruction (Count)
system.cpu.commit.committedInstType_0::SimdMisc            0      0.00%     63.51% # Class of committed instruction (Count)
system.cpu.commit.committedInstType_0::SimdMult            0      0.00%     63.51% # Class of committed instruction (Count)
system.cpu.commit.committedInstType_0::SimdMultAcc            0      0.00%     63.51% # Class of committed instruction (Count)
system.cpu.commit.committedInstType_0::SimdShift            0      0.00%     63.51% # Class of committed instruction (Count)
system.cpu.commit.committedInstType_0::SimdShiftAcc            0      0.00%     63.51% # Class of committed instruction (Count)
system.cpu.commit.committedInstType_0::SimdDiv            0      0.00%     63.51% # Class of committed instruction (Count)
system.cpu.commit.committedInstType_0::SimdSqrt            0      0.00%     63.51% # Class of committed instruction (Count)
system.cpu.commit.committedInstType_0::SimdFloatAdd            0      0.00%     63.51% # Class of committed instruction (Count)
system.cpu.commit.committedInstType_0::SimdFloatAlu            0      0.00%     63.51% # Class of committed instruction (Count)
system.cpu.commit.committedInstType_0::SimdFloatCmp            0      0.00%     63.51% # Class of committed instruction (Count)
system.cpu.commit.committedInstType_0::SimdFloatCvt            0      0.00%     63.51% # Class of committed instruction (Count)
system.cpu.commit.committedInstType_0::SimdFloatDiv            0      0.00%     63.51% # Class of committed instruction (Count)
system.cpu.commit.committedInstType_0::SimdFloatMisc            0      0.00%     63.51% # Class of committed instruction (Count)
system.cpu.commit.committedInstType_0::SimdFloatMult            0      0.00%     63.51% # Class of committed instruction (Count)
system.cpu.commit.committedInstType_0::SimdFloatMultAcc            0      0.00%     63.51% # Class of committed instruction (Count)
system.cpu.commit.committedInstType_0::SimdFloatSqrt            0      0.00%     63.51% # Class of committed instruction (Count)
system.cpu.commit.committedInstType_0::SimdReduceAdd            0      0.00%     63.51% # Class of committed instruction (Count)
system.cpu.commit.committedInstType_0::SimdReduceAlu            0      0.00%     63.51% # Class of committed instruction (Count)
system.cpu.commit.committedInstType_0::SimdReduceCmp            0      0.00%     63.51% # Class of committed instruction (Count)
system.cpu.commit.committedInstType_0::SimdFloatReduceAdd            0      0.00%     63.51% # Class of committed instruction (Count)
system.cpu.commit.committedInstType_0::SimdFloatReduceCmp            0      0.00%     63.51% # Class of committed instruction (Count)
system.cpu.commit.committedInstType_0::SimdAes            0      0.00%     63.51% # Class of committed instruction (Count)
system.cpu.commit.committedInstType_0::SimdAesMix            0      0.00%     63.51% # Class of committed instruction (Count)
system.cpu.commit.committedInstType_0::SimdSha1Hash            0      0.00%     63.51% # Class of committed instruction (Count)
system.cpu.commit.committedInstType_0::SimdSha1Hash2            0      0.00%     63.51% # Class of committed instruction (Count)
system.cpu.commit.committedInstType_0::SimdSha256Hash            0      0.00%     63.51% # Class of committed instruction (Count)
system.cpu.commit.committedInstType_0::SimdSha256Hash2            0      0.00%     63.51% # Class of committed instruction (Count)
system.cpu.commit.committedInstType_0::SimdShaSigma2            0      0.00%     63.51% # Class of committed instruction (Count)
system.cpu.commit.committedInstType_0::SimdShaSigma3            0      0.00%     63.51% # Class of committed instruction (Count)
system.cpu.commit.committedInstType_0::SimdPredAlu            0      0.00%     63.51% # Class of committed instruction (Count)
system.cpu.commit.committedInstType_0::MemRead         2689     19.57%     83.08% # Class of committed instruction (Count)
system.cpu.commit.committedInstType_0::MemWrite         2313     16.83%     99.91% # Class of committed instruction (Count)
system.cpu.commit.committedInstType_0::FloatMemRead            0      0.00%     99.91% # Class of committed instruction (Count)
system.cpu.commit.committedInstType_0::FloatMemWrite           12      0.09%    100.00% # Class of committed instruction (Count)
system.cpu.commit.committedInstType_0::IprAccess            0      0.00%    100.00% # Class of committed instruction (Count)
system.cpu.commit.committedInstType_0::InstPrefetch            0      0.00%    100.00% # Class of committed instruction (Count)
system.cpu.commit.committedInstType_0::total        13740                       # Class of committed instruction (Count)
system.cpu.commit.commitEligibleSamples          1373                       # number cycles where commit BW limit reached (Cycle)
system.cpu.dcache.demandHits::cpu.data           4447                       # number of demand (read+write) hits (Count)
system.cpu.dcache.demandHits::total              4447                       # number of demand (read+write) hits (Count)
system.cpu.dcache.overallHits::cpu.data          4447                       # number of overall hits (Count)
system.cpu.dcache.overallHits::total             4447                       # number of overall hits (Count)
system.cpu.dcache.demandMisses::cpu.data          944                       # number of demand (read+write) misses (Count)
system.cpu.dcache.demandMisses::total             944                       # number of demand (read+write) misses (Count)
system.cpu.dcache.overallMisses::cpu.data          944                       # number of overall misses (Count)
system.cpu.dcache.overallMisses::total            944                       # number of overall misses (Count)
system.cpu.dcache.demandMissLatency::cpu.data     79500833                       # number of demand (read+write) miss ticks (Tick)
system.cpu.dcache.demandMissLatency::total     79500833                       # number of demand (read+write) miss ticks (Tick)
system.cpu.dcache.overallMissLatency::cpu.data     79500833                       # number of overall miss ticks (Tick)
system.cpu.dcache.overallMissLatency::total     79500833                       # number of overall miss ticks (Tick)
system.cpu.dcache.demandAccesses::cpu.data         5391                       # number of demand (read+write) accesses (Count)
system.cpu.dcache.demandAccesses::total          5391                       # number of demand (read+write) accesses (Count)
system.cpu.dcache.overallAccesses::cpu.data         5391                       # number of overall (read+write) accesses (Count)
system.cpu.dcache.overallAccesses::total         5391                       # number of overall (read+write) accesses (Count)
system.cpu.dcache.demandMissRate::cpu.data     0.175107                       # miss rate for demand accesses (Ratio)
system.cpu.dcache.demandMissRate::total      0.175107                       # miss rate for demand accesses (Ratio)
system.cpu.dcache.overallMissRate::cpu.data     0.175107                       # miss rate for overall accesses (Ratio)
system.cpu.dcache.overallMissRate::total     0.175107                       # miss rate for overall accesses (Ratio)
system.cpu.dcache.demandAvgMissLatency::cpu.data 84216.984110                       # average overall miss latency in ticks ((Tick/Count))
system.cpu.dcache.demandAvgMissLatency::total 84216.984110                       # average overall miss latency in ticks ((Tick/Count))
system.cpu.dcache.overallAvgMissLatency::cpu.data 84216.984110                       # average overall miss latency ((Tick/Count))
system.cpu.dcache.overallAvgMissLatency::total 84216.984110                       # average overall miss latency ((Tick/Count))
system.cpu.dcache.blockedCycles::no_mshrs         5050                       # number of cycles access was blocked (Cycle)
system.cpu.dcache.blockedCycles::no_targets            0                       # number of cycles access was blocked (Cycle)
system.cpu.dcache.blockedCauses::no_mshrs          197                       # number of times access was blocked (Count)
system.cpu.dcache.blockedCauses::no_targets            0                       # number of times access was blocked (Count)
system.cpu.dcache.avgBlocked::no_mshrs      25.634518                       # average number of cycles each access was blocked ((Cycle/Count))
system.cpu.dcache.avgBlocked::no_targets          nan                       # average number of cycles each access was blocked ((Cycle/Count))
system.cpu.dcache.demandMshrHits::cpu.data          428                       # number of demand (read+write) MSHR hits (Count)
system.cpu.dcache.demandMshrHits::total           428                       # number of demand (read+write) MSHR hits (Count)
system.cpu.dcache.overallMshrHits::cpu.data          428                       # number of overall MSHR hits (Count)
system.cpu.dcache.overallMshrHits::total          428                       # number of overall MSHR hits (Count)
system.cpu.dcache.demandMshrMisses::cpu.data          516                       # number of demand (read+write) MSHR misses (Count)
system.cpu.dcache.demandMshrMisses::total          516                       # number of demand (read+write) MSHR misses (Count)
system.cpu.dcache.overallMshrMisses::cpu.data          516                       # number of overall MSHR misses (Count)
system.cpu.dcache.overallMshrMisses::total          516                       # number of overall MSHR misses (Count)
system.cpu.dcache.demandMshrMissLatency::cpu.data     50602998                       # number of demand (read+write) MSHR miss ticks (Tick)
system.cpu.dcache.demandMshrMissLatency::total     50602998                       # number of demand (read+write) MSHR miss ticks (Tick)
system.cpu.dcache.overallMshrMissLatency::cpu.data     50602998                       # number of overall MSHR miss ticks (Tick)
system.cpu.dcache.overallMshrMissLatency::total     50602998                       # number of overall MSHR miss ticks (Tick)
system.cpu.dcache.demandMshrMissRate::cpu.data     0.095715                       # mshr miss ratio for demand accesses (Ratio)
system.cpu.dcache.demandMshrMissRate::total     0.095715                       # mshr miss ratio for demand accesses (Ratio)
system.cpu.dcache.overallMshrMissRate::cpu.data     0.095715                       # mshr miss ratio for overall accesses (Ratio)
system.cpu.dcache.overallMshrMissRate::total     0.095715                       # mshr miss ratio for overall accesses (Ratio)
system.cpu.dcache.demandAvgMshrMissLatency::cpu.data 98067.825581                       # average overall mshr miss latency ((Tick/Count))
system.cpu.dcache.demandAvgMshrMissLatency::total 98067.825581                       # average overall mshr miss latency ((Tick/Count))
system.cpu.dcache.overallAvgMshrMissLatency::cpu.data 98067.825581                       # average overall mshr miss latency ((Tick/Count))
system.cpu.dcache.overallAvgMshrMissLatency::total 98067.825581                       # average overall mshr miss latency ((Tick/Count))
system.cpu.dcache.replacements                      0                       # number of replacements (Count)
system.cpu.dcache.LoadLockedReq.hits::cpu.data           24                       # number of LoadLockedReq hits (Count)
system.cpu.dcache.LoadLockedReq.hits::total           24                       # number of LoadLockedReq hits (Count)
system.cpu.dcache.LoadLockedReq.misses::cpu.data            4                       # number of LoadLockedReq misses (Count)
system.cpu.dcache.LoadLockedReq.misses::total            4                       # number of LoadLockedReq misses (Count)
system.cpu.dcache.LoadLockedReq.missLatency::cpu.data       381000                       # number of LoadLockedReq miss ticks (Tick)
system.cpu.dcache.LoadLockedReq.missLatency::total       381000                       # number of LoadLockedReq miss ticks (Tick)
system.cpu.dcache.LoadLockedReq.accesses::cpu.data           28                       # number of LoadLockedReq accesses(hits+misses) (Count)
system.cpu.dcache.LoadLockedReq.accesses::total           28                       # number of LoadLockedReq accesses(hits+misses) (Count)
system.cpu.dcache.LoadLockedReq.missRate::cpu.data     0.142857                       # miss rate for LoadLockedReq accesses (Ratio)
system.cpu.dcache.LoadLockedReq.missRate::total     0.142857                       # miss rate for LoadLockedReq accesses (Ratio)
system.cpu.dcache.LoadLockedReq.avgMissLatency::cpu.data        95250                       # average LoadLockedReq miss latency ((Tick/Count))
system.cpu.dcache.LoadLockedReq.avgMissLatency::total        95250                       # average LoadLockedReq miss latency ((Tick/Count))
system.cpu.dcache.LoadLockedReq.mshrMisses::cpu.data            4                       # number of LoadLockedReq MSHR misses (Count)
system.cpu.dcache.LoadLockedReq.mshrMisses::total            4                       # number of LoadLockedReq MSHR misses (Count)
system.cpu.dcache.LoadLockedReq.mshrMissLatency::cpu.data       373000                       # number of LoadLockedReq MSHR miss ticks (Tick)
system.cpu.dcache.LoadLockedReq.mshrMissLatency::total       373000                       # number of LoadLockedReq MSHR miss ticks (Tick)
system.cpu.dcache.LoadLockedReq.mshrMissRate::cpu.data     0.142857                       # mshr miss rate for LoadLockedReq accesses (Ratio)
system.cpu.dcache.LoadLockedReq.mshrMissRate::total     0.142857                       # mshr miss rate for LoadLockedReq accesses (Ratio)
system.cpu.dcache.LoadLockedReq.avgMshrMissLatency::cpu.data        93250                       # average LoadLockedReq mshr miss latency ((Tick/Count))
system.cpu.dcache.LoadLockedReq.avgMshrMissLatency::total        93250                       # average LoadLockedReq mshr miss latency ((Tick/Count))
system.cpu.dcache.ReadReq.hits::cpu.data         2745                       # number of ReadReq hits (Count)
system.cpu.dcache.ReadReq.hits::total            2745                       # number of ReadReq hits (Count)
system.cpu.dcache.ReadReq.misses::cpu.data          345                       # number of ReadReq misses (Count)
system.cpu.dcache.ReadReq.misses::total           345                       # number of ReadReq misses (Count)
system.cpu.dcache.ReadReq.missLatency::cpu.data     31666000                       # number of ReadReq miss ticks (Tick)
system.cpu.dcache.ReadReq.missLatency::total     31666000                       # number of ReadReq miss ticks (Tick)
system.cpu.dcache.ReadReq.accesses::cpu.data         3090                       # number of ReadReq accesses(hits+misses) (Count)
system.cpu.dcache.ReadReq.accesses::total         3090                       # number of ReadReq accesses(hits+misses) (Count)
system.cpu.dcache.ReadReq.missRate::cpu.data     0.111650                       # miss rate for ReadReq accesses (Ratio)
system.cpu.dcache.ReadReq.missRate::total     0.111650                       # miss rate for ReadReq accesses (Ratio)
system.cpu.dcache.ReadReq.avgMissLatency::cpu.data 91785.507246                       # average ReadReq miss latency ((Tick/Count))
system.cpu.dcache.ReadReq.avgMissLatency::total 91785.507246                       # average ReadReq miss latency ((Tick/Count))
system.cpu.dcache.ReadReq.mshrHits::cpu.data          163                       # number of ReadReq MSHR hits (Count)
system.cpu.dcache.ReadReq.mshrHits::total          163                       # number of ReadReq MSHR hits (Count)
system.cpu.dcache.ReadReq.mshrMisses::cpu.data          182                       # number of ReadReq MSHR misses (Count)
system.cpu.dcache.ReadReq.mshrMisses::total          182                       # number of ReadReq MSHR misses (Count)
system.cpu.dcache.ReadReq.mshrMissLatency::cpu.data     18899000                       # number of ReadReq MSHR miss ticks (Tick)
system.cpu.dcache.ReadReq.mshrMissLatency::total     18899000                       # number of ReadReq MSHR miss ticks (Tick)
system.cpu.dcache.ReadReq.mshrMissRate::cpu.data     0.058900                       # mshr miss rate for ReadReq accesses (Ratio)
system.cpu.dcache.ReadReq.mshrMissRate::total     0.058900                       # mshr miss rate for ReadReq accesses (Ratio)
system.cpu.dcache.ReadReq.avgMshrMissLatency::cpu.data 103840.659341                       # average ReadReq mshr miss latency ((Tick/Count))
system.cpu.dcache.ReadReq.avgMshrMissLatency::total 103840.659341                       # average ReadReq mshr miss latency ((Tick/Count))
system.cpu.dcache.StoreCondReq.hits::cpu.data           24                       # number of StoreCondReq hits (Count)
system.cpu.dcache.StoreCondReq.hits::total           24                       # number of StoreCondReq hits (Count)
system.cpu.dcache.StoreCondReq.accesses::cpu.data           24                       # number of StoreCondReq accesses(hits+misses) (Count)
system.cpu.dcache.StoreCondReq.accesses::total           24                       # number of StoreCondReq accesses(hits+misses) (Count)
system.cpu.dcache.SwapReq.hits::cpu.data           25                       # number of SwapReq hits (Count)
system.cpu.dcache.SwapReq.hits::total              25                       # number of SwapReq hits (Count)
system.cpu.dcache.SwapReq.misses::cpu.data            1                       # number of SwapReq misses (Count)
system.cpu.dcache.SwapReq.misses::total             1                       # number of SwapReq misses (Count)
system.cpu.dcache.SwapReq.missLatency::cpu.data        94999                       # number of SwapReq miss ticks (Tick)
system.cpu.dcache.SwapReq.missLatency::total        94999                       # number of SwapReq miss ticks (Tick)
system.cpu.dcache.SwapReq.accesses::cpu.data           26                       # number of SwapReq accesses(hits+misses) (Count)
system.cpu.dcache.SwapReq.accesses::total           26                       # number of SwapReq accesses(hits+misses) (Count)
system.cpu.dcache.SwapReq.missRate::cpu.data     0.038462                       # miss rate for SwapReq accesses (Ratio)
system.cpu.dcache.SwapReq.missRate::total     0.038462                       # miss rate for SwapReq accesses (Ratio)
system.cpu.dcache.SwapReq.avgMissLatency::cpu.data        94999                       # average SwapReq miss latency ((Tick/Count))
system.cpu.dcache.SwapReq.avgMissLatency::total        94999                       # average SwapReq miss latency ((Tick/Count))
system.cpu.dcache.SwapReq.mshrMisses::cpu.data            1                       # number of SwapReq MSHR misses (Count)
system.cpu.dcache.SwapReq.mshrMisses::total            1                       # number of SwapReq MSHR misses (Count)
system.cpu.dcache.SwapReq.mshrMissLatency::cpu.data        92999                       # number of SwapReq MSHR miss ticks (Tick)
system.cpu.dcache.SwapReq.mshrMissLatency::total        92999                       # number of SwapReq MSHR miss ticks (Tick)
system.cpu.dcache.SwapReq.mshrMissRate::cpu.data     0.038462                       # mshr miss rate for SwapReq accesses (Ratio)
system.cpu.dcache.SwapReq.mshrMissRate::total     0.038462                       # mshr miss rate for SwapReq accesses (Ratio)
system.cpu.dcache.SwapReq.avgMshrMissLatency::cpu.data        92999                       # average SwapReq mshr miss latency ((Tick/Count))
system.cpu.dcache.SwapReq.avgMshrMissLatency::total        92999                       # average SwapReq mshr miss latency ((Tick/Count))
system.cpu.dcache.WriteReq.hits::cpu.data         1702                       # number of WriteReq hits (Count)
system.cpu.dcache.WriteReq.hits::total           1702                       # number of WriteReq hits (Count)
system.cpu.dcache.WriteReq.misses::cpu.data          599                       # number of WriteReq misses (Count)
system.cpu.dcache.WriteReq.misses::total          599                       # number of WriteReq misses (Count)
system.cpu.dcache.WriteReq.missLatency::cpu.data     47834833                       # number of WriteReq miss ticks (Tick)
system.cpu.dcache.WriteReq.missLatency::total     47834833                       # number of WriteReq miss ticks (Tick)
system.cpu.dcache.WriteReq.accesses::cpu.data         2301                       # number of WriteReq accesses(hits+misses) (Count)
system.cpu.dcache.WriteReq.accesses::total         2301                       # number of WriteReq accesses(hits+misses) (Count)
system.cpu.dcache.WriteReq.missRate::cpu.data     0.260322                       # miss rate for WriteReq accesses (Ratio)
system.cpu.dcache.WriteReq.missRate::total     0.260322                       # miss rate for WriteReq accesses (Ratio)
system.cpu.dcache.WriteReq.avgMissLatency::cpu.data 79857.818030                       # average WriteReq miss latency ((Tick/Count))
system.cpu.dcache.WriteReq.avgMissLatency::total 79857.818030                       # average WriteReq miss latency ((Tick/Count))
system.cpu.dcache.WriteReq.mshrHits::cpu.data          265                       # number of WriteReq MSHR hits (Count)
system.cpu.dcache.WriteReq.mshrHits::total          265                       # number of WriteReq MSHR hits (Count)
system.cpu.dcache.WriteReq.mshrMisses::cpu.data          334                       # number of WriteReq MSHR misses (Count)
system.cpu.dcache.WriteReq.mshrMisses::total          334                       # number of WriteReq MSHR misses (Count)
system.cpu.dcache.WriteReq.mshrMissLatency::cpu.data     31703998                       # number of WriteReq MSHR miss ticks (Tick)
system.cpu.dcache.WriteReq.mshrMissLatency::total     31703998                       # number of WriteReq MSHR miss ticks (Tick)
system.cpu.dcache.WriteReq.mshrMissRate::cpu.data     0.145154                       # mshr miss rate for WriteReq accesses (Ratio)
system.cpu.dcache.WriteReq.mshrMissRate::total     0.145154                       # mshr miss rate for WriteReq accesses (Ratio)
system.cpu.dcache.WriteReq.avgMshrMissLatency::cpu.data 94922.149701                       # average WriteReq mshr miss latency ((Tick/Count))
system.cpu.dcache.WriteReq.avgMshrMissLatency::total 94922.149701                       # average WriteReq mshr miss latency ((Tick/Count))
system.cpu.dcache.power_state.pwrStateResidencyTicks::UNDEFINED     87845000                       # Cumulative time (in ticks) in various power states (Tick)
system.cpu.dcache.prefetcher.demandMshrMisses          516                       # demands not covered by prefetchs (Count)
system.cpu.dcache.prefetcher.pfIssued               0                       # number of hwpf issued (Count)
system.cpu.dcache.prefetcher.pfUseful               0                       # number of useful prefetch (Count)
system.cpu.dcache.prefetcher.pfUsefulButMiss            0                       # number of hit on prefetch but cache block is not in an usable state (Count)
system.cpu.dcache.prefetcher.accuracy             nan                       # accuracy of the prefetcher (Count)
system.cpu.dcache.prefetcher.coverage               0                       # coverage brought by this prefetcher (Count)
system.cpu.dcache.prefetcher.pfHitInCache            0                       # number of prefetches hitting in cache (Count)
system.cpu.dcache.prefetcher.pfHitInMSHR            0                       # number of prefetches hitting in a MSHR (Count)
system.cpu.dcache.prefetcher.pfHitInWB              0                       # number of prefetches hit in the Write Buffer (Count)
system.cpu.dcache.prefetcher.pfLate                 0                       # number of late prefetches (hitting in cache, MSHR or WB) (Count)
system.cpu.dcache.prefetcher.pfIdentified            0                       # number of prefetch candidates identified (Count)
system.cpu.dcache.prefetcher.pfBufferHit            0                       # number of redundant prefetches already in prefetch queue (Count)
system.cpu.dcache.prefetcher.pfInCache              0                       # number of redundant prefetches already in cache/mshr dropped (Count)
system.cpu.dcache.prefetcher.pfRemovedDemand            0                       # number of prefetches dropped due to a demand for the same address (Count)
system.cpu.dcache.prefetcher.pfRemovedFull            0                       # number of prefetches dropped due to prefetch queue size (Count)
system.cpu.dcache.prefetcher.pfSpanPage             0                       # number of prefetches that crossed the page (Count)
system.cpu.dcache.prefetcher.pfUsefulSpanPage            0                       # number of prefetches that is useful and crossed the page (Count)
system.cpu.dcache.prefetcher.power_state.pwrStateResidencyTicks::UNDEFINED     87845000                       # Cumulative time (in ticks) in various power states (Tick)
system.cpu.dcache.tags.tagsInUse           351.737813                       # Average ticks per tags in use ((Tick/Count))
system.cpu.dcache.tags.totalRefs                 5041                       # Total number of references to valid blocks. (Count)
system.cpu.dcache.tags.sampledRefs                521                       # Sample count of references to valid blocks. (Count)
system.cpu.dcache.tags.avgRefs               9.675624                       # Average number of references to valid blocks. ((Count/Count))
system.cpu.dcache.tags.warmupTick              327000                       # The tick when the warmup percentage was hit. (Tick)
system.cpu.dcache.tags.occupancies::cpu.data   351.737813                       # Average occupied blocks per tick, per requestor ((Count/Tick))
system.cpu.dcache.tags.avgOccs::cpu.data     0.171747                       # Average percentage of cache occupancy ((Ratio/Tick))
system.cpu.dcache.tags.avgOccs::total        0.171747                       # Average percentage of cache occupancy ((Ratio/Tick))
system.cpu.dcache.tags.occupanciesTaskId::1024          521                       # Occupied blocks per task id (Count)
system.cpu.dcache.tags.ageTaskId_1024::0           24                       # Occupied blocks per task id, per block age (Count)
system.cpu.dcache.tags.ageTaskId_1024::1          497                       # Occupied blocks per task id, per block age (Count)
system.cpu.dcache.tags.ratioOccsTaskId::1024     0.254395                       # Ratio of occupied blocks and all blocks, per task id (Ratio)
system.cpu.dcache.tags.tagAccesses              44273                       # Number of tag accesses (Count)
system.cpu.dcache.tags.dataAccesses             44273                       # Number of data accesses (Count)
system.cpu.dcache.tags.power_state.pwrStateResidencyTicks::UNDEFINED     87845000                       # Cumulative time (in ticks) in various power states (Tick)
system.cpu.decode.idleCycles                    23741                       # Number of cycles decode is idle (Cycle)
system.cpu.decode.blockedCycles                  5559                       # Number of cycles decode is blocked (Cycle)
system.cpu.decode.runCycles                      6537                       # Number of cycles decode is running (Cycle)
system.cpu.decode.unblockCycles                   239                       # Number of cycles decode is unblocking (Cycle)
system.cpu.decode.squashCycles                    453                       # Number of cycles decode is squashing (Cycle)
system.cpu.decode.branchResolved                 1425                       # Number of times decode resolved a branch (Count)
system.cpu.decode.branchMispred                   210                       # Number of times decode detected a branch misprediction (Count)
system.cpu.decode.decodedInsts                  17546                       # Number of instructions handled by decode (Count)
system.cpu.decode.squashedInsts                  1378                       # Number of squashed instructions handled by decode (Count)
system.cpu.dtb_walker_cache.blockedCycles::no_mshrs            0                       # number of cycles access was blocked (Cycle)
system.cpu.dtb_walker_cache.blockedCycles::no_targets            0                       # number of cycles access was blocked (Cycle)
system.cpu.dtb_walker_cache.blockedCauses::no_mshrs            0                       # number of times access was blocked (Count)
system.cpu.dtb_walker_cache.blockedCauses::no_targets            0                       # number of times access was blocked (Count)
system.cpu.dtb_walker_cache.avgBlocked::no_mshrs          nan                       # average number of cycles each access was blocked ((Cycle/Count))
system.cpu.dtb_walker_cache.avgBlocked::no_targets          nan                       # average number of cycles each access was blocked ((Cycle/Count))
system.cpu.dtb_walker_cache.replacements            0                       # number of replacements (Count)
system.cpu.dtb_walker_cache.power_state.pwrStateResidencyTicks::UNDEFINED     87845000                       # Cumulative time (in ticks) in various power states (Tick)
system.cpu.dtb_walker_cache.tags.tagsInUse            0                       # Average ticks per tags in use ((Tick/Count))
system.cpu.dtb_walker_cache.tags.totalRefs            0                       # Total number of references to valid blocks. (Count)
system.cpu.dtb_walker_cache.tags.sampledRefs            0                       # Sample count of references to valid blocks. (Count)
system.cpu.dtb_walker_cache.tags.avgRefs          nan                       # Average number of references to valid blocks. ((Count/Count))
system.cpu.dtb_walker_cache.tags.warmupTick            0                       # The tick when the warmup percentage was hit. (Tick)
system.cpu.dtb_walker_cache.tags.tagAccesses            0                       # Number of tag accesses (Count)
system.cpu.dtb_walker_cache.tags.dataAccesses            0                       # Number of data accesses (Count)
system.cpu.dtb_walker_cache.tags.power_state.pwrStateResidencyTicks::UNDEFINED     87845000                       # Cumulative time (in ticks) in various power states (Tick)
system.cpu.fetch.icacheStallCycles              24313                       # Number of cycles fetch is stalled on an Icache miss (Cycle)
system.cpu.fetch.insts                          20084                       # Number of instructions fetch has processed (Count)
system.cpu.fetch.branches                        4413                       # Number of branches that fetch encountered (Count)
system.cpu.fetch.predictedBranches               1850                       # Number of branches that fetch has predicted taken (Count)
system.cpu.fetch.cycles                         11517                       # Number of cycles fetch has run and was not squashing or blocked (Cycle)
system.cpu.fetch.squashCycles                    1320                       # Number of cycles fetch has spent squashing (Cycle)
system.cpu.fetch.miscStallCycles                    3                       # Number of cycles fetch has spent waiting on interrupts, or bad addresses, or out of MSHRs (Cycle)
system.cpu.fetch.icacheWaitRetryStallCycles           36                       # Number of stall cycles due to full MSHR (Cycle)
system.cpu.fetch.cacheLines                      5652                       # Number of cache lines fetched (Count)
system.cpu.fetch.icacheSquashes                   496                       # Number of outstanding Icache misses that were squashed (Count)
system.cpu.fetch.nisnDist::samples              36529                       # Number of instructions fetched each cycle (Total) (Count)
system.cpu.fetch.nisnDist::mean              0.550877                       # Number of instructions fetched each cycle (Total) (Count)
system.cpu.fetch.nisnDist::stdev             1.239539                       # Number of instructions fetched each cycle (Total) (Count)
system.cpu.fetch.nisnDist::underflows               0      0.00%      0.00% # Number of instructions fetched each cycle (Total) (Count)
system.cpu.fetch.nisnDist::0                    29232     80.02%     80.02% # Number of instructions fetched each cycle (Total) (Count)
system.cpu.fetch.nisnDist::1                     1883      5.15%     85.18% # Number of instructions fetched each cycle (Total) (Count)
system.cpu.fetch.nisnDist::2                     1307      3.58%     88.76% # Number of instructions fetched each cycle (Total) (Count)
system.cpu.fetch.nisnDist::3                      802      2.20%     90.95% # Number of instructions fetched each cycle (Total) (Count)
system.cpu.fetch.nisnDist::4                     3305      9.05%    100.00% # Number of instructions fetched each cycle (Total) (Count)
system.cpu.fetch.nisnDist::overflows                0      0.00%    100.00% # Number of instructions fetched each cycle (Total) (Count)
system.cpu.fetch.nisnDist::min_value                0                       # Number of instructions fetched each cycle (Total) (Count)
system.cpu.fetch.nisnDist::max_value                4                       # Number of instructions fetched each cycle (Total) (Count)
system.cpu.fetch.nisnDist::total                36529                       # Number of instructions fetched each cycle (Total) (Count)
system.cpu.fetch.branchRate                  0.050236                       # Number of branch fetches per cycle (Ratio)
system.cpu.fetch.rate                        0.228627                       # Number of inst fetches per cycle ((Count/Cycle))
system.cpu.icache.demandHits::cpu.inst           4544                       # number of demand (read+write) hits (Count)
system.cpu.icache.demandHits::total              4544                       # number of demand (read+write) hits (Count)
system.cpu.icache.overallHits::cpu.inst          4544                       # number of overall hits (Count)
system.cpu.icache.overallHits::total             4544                       # number of overall hits (Count)
system.cpu.icache.demandMisses::cpu.inst         1108                       # number of demand (read+write) misses (Count)
system.cpu.icache.demandMisses::total            1108                       # number of demand (read+write) misses (Count)
system.cpu.icache.overallMisses::cpu.inst         1108                       # number of overall misses (Count)
system.cpu.icache.overallMisses::total           1108                       # number of overall misses (Count)
system.cpu.icache.demandMissLatency::cpu.inst    107263998                       # number of demand (read+write) miss ticks (Tick)
system.cpu.icache.demandMissLatency::total    107263998                       # number of demand (read+write) miss ticks (Tick)
system.cpu.icache.overallMissLatency::cpu.inst    107263998                       # number of overall miss ticks (Tick)
system.cpu.icache.overallMissLatency::total    107263998                       # number of overall miss ticks (Tick)
system.cpu.icache.demandAccesses::cpu.inst         5652                       # number of demand (read+write) accesses (Count)
system.cpu.icache.demandAccesses::total          5652                       # number of demand (read+write) accesses (Count)
system.cpu.icache.overallAccesses::cpu.inst         5652                       # number of overall (read+write) accesses (Count)
system.cpu.icache.overallAccesses::total         5652                       # number of overall (read+write) accesses (Count)
system.cpu.icache.demandMissRate::cpu.inst     0.196037                       # miss rate for demand accesses (Ratio)
system.cpu.icache.demandMissRate::total      0.196037                       # miss rate for demand accesses (Ratio)
system.cpu.icache.overallMissRate::cpu.inst     0.196037                       # miss rate for overall accesses (Ratio)
system.cpu.icache.overallMissRate::total     0.196037                       # miss rate for overall accesses (Ratio)
system.cpu.icache.demandAvgMissLatency::cpu.inst 96808.662455                       # average overall miss latency in ticks ((Tick/Count))
system.cpu.icache.demandAvgMissLatency::total 96808.662455                       # average overall miss latency in ticks ((Tick/Count))
system.cpu.icache.overallAvgMissLatency::cpu.inst 96808.662455                       # average overall miss latency ((Tick/Count))
system.cpu.icache.overallAvgMissLatency::total 96808.662455                       # average overall miss latency ((Tick/Count))
system.cpu.icache.blockedCycles::no_mshrs          171                       # number of cycles access was blocked (Cycle)
system.cpu.icache.blockedCycles::no_targets            0                       # number of cycles access was blocked (Cycle)
system.cpu.icache.blockedCauses::no_mshrs            4                       # number of times access was blocked (Count)
system.cpu.icache.blockedCauses::no_targets            0                       # number of times access was blocked (Count)
system.cpu.icache.avgBlocked::no_mshrs      42.750000                       # average number of cycles each access was blocked ((Cycle/Count))
system.cpu.icache.avgBlocked::no_targets          nan                       # average number of cycles each access was blocked ((Cycle/Count))
system.cpu.icache.demandMshrHits::cpu.inst          134                       # number of demand (read+write) MSHR hits (Count)
system.cpu.icache.demandMshrHits::total           134                       # number of demand (read+write) MSHR hits (Count)
system.cpu.icache.overallMshrHits::cpu.inst          134                       # number of overall MSHR hits (Count)
system.cpu.icache.overallMshrHits::total          134                       # number of overall MSHR hits (Count)
system.cpu.icache.demandMshrMisses::cpu.inst          974                       # number of demand (read+write) MSHR misses (Count)
system.cpu.icache.demandMshrMisses::total          974                       # number of demand (read+write) MSHR misses (Count)
system.cpu.icache.overallMshrMisses::cpu.inst          974                       # number of overall MSHR misses (Count)
system.cpu.icache.overallMshrMisses::total          974                       # number of overall MSHR misses (Count)
system.cpu.icache.demandMshrMissLatency::cpu.inst     96645000                       # number of demand (read+write) MSHR miss ticks (Tick)
system.cpu.icache.demandMshrMissLatency::total     96645000                       # number of demand (read+write) MSHR miss ticks (Tick)
system.cpu.icache.overallMshrMissLatency::cpu.inst     96645000                       # number of overall MSHR miss ticks (Tick)
system.cpu.icache.overallMshrMissLatency::total     96645000                       # number of overall MSHR miss ticks (Tick)
system.cpu.icache.demandMshrMissRate::cpu.inst     0.172328                       # mshr miss ratio for demand accesses (Ratio)
system.cpu.icache.demandMshrMissRate::total     0.172328                       # mshr miss ratio for demand accesses (Ratio)
system.cpu.icache.overallMshrMissRate::cpu.inst     0.172328                       # mshr miss ratio for overall accesses (Ratio)
system.cpu.icache.overallMshrMissRate::total     0.172328                       # mshr miss ratio for overall accesses (Ratio)
system.cpu.icache.demandAvgMshrMissLatency::cpu.inst 99224.845996                       # average overall mshr miss latency ((Tick/Count))
system.cpu.icache.demandAvgMshrMissLatency::total 99224.845996                       # average overall mshr miss latency ((Tick/Count))
system.cpu.icache.overallAvgMshrMissLatency::cpu.inst 99224.845996                       # average overall mshr miss latency ((Tick/Count))
system.cpu.icache.overallAvgMshrMissLatency::total 99224.845996                       # average overall mshr miss latency ((Tick/Count))
system.cpu.icache.replacements                      0                       # number of replacements (Count)
system.cpu.icache.ReadReq.hits::cpu.inst         4544                       # number of ReadReq hits (Count)
system.cpu.icache.ReadReq.hits::total            4544                       # number of ReadReq hits (Count)
system.cpu.icache.ReadReq.misses::cpu.inst         1108                       # number of ReadReq misses (Count)
system.cpu.icache.ReadReq.misses::total          1108                       # number of ReadReq misses (Count)
system.cpu.icache.ReadReq.missLatency::cpu.inst    107263998                       # number of ReadReq miss ticks (Tick)
system.cpu.icache.ReadReq.missLatency::total    107263998                       # number of ReadReq miss ticks (Tick)
system.cpu.icache.ReadReq.accesses::cpu.inst         5652                       # number of ReadReq accesses(hits+misses) (Count)
system.cpu.icache.ReadReq.accesses::total         5652                       # number of ReadReq accesses(hits+misses) (Count)
system.cpu.icache.ReadReq.missRate::cpu.inst     0.196037                       # miss rate for ReadReq accesses (Ratio)
system.cpu.icache.ReadReq.missRate::total     0.196037                       # miss rate for ReadReq accesses (Ratio)
system.cpu.icache.ReadReq.avgMissLatency::cpu.inst 96808.662455                       # average ReadReq miss latency ((Tick/Count))
system.cpu.icache.ReadReq.avgMissLatency::total 96808.662455                       # average ReadReq miss latency ((Tick/Count))
system.cpu.icache.ReadReq.mshrHits::cpu.inst          134                       # number of ReadReq MSHR hits (Count)
system.cpu.icache.ReadReq.mshrHits::total          134                       # number of ReadReq MSHR hits (Count)
system.cpu.icache.ReadReq.mshrMisses::cpu.inst          974                       # number of ReadReq MSHR misses (Count)
system.cpu.icache.ReadReq.mshrMisses::total          974                       # number of ReadReq MSHR misses (Count)
system.cpu.icache.ReadReq.mshrMissLatency::cpu.inst     96645000                       # number of ReadReq MSHR miss ticks (Tick)
system.cpu.icache.ReadReq.mshrMissLatency::total     96645000                       # number of ReadReq MSHR miss ticks (Tick)
system.cpu.icache.ReadReq.mshrMissRate::cpu.inst     0.172328                       # mshr miss rate for ReadReq accesses (Ratio)
system.cpu.icache.ReadReq.mshrMissRate::total     0.172328                       # mshr miss rate for ReadReq accesses (Ratio)
system.cpu.icache.ReadReq.avgMshrMissLatency::cpu.inst 99224.845996                       # average ReadReq mshr miss latency ((Tick/Count))
system.cpu.icache.ReadReq.avgMshrMissLatency::total 99224.845996                       # average ReadReq mshr miss latency ((Tick/Count))
system.cpu.icache.power_state.pwrStateResidencyTicks::UNDEFINED     87845000                       # Cumulative time (in ticks) in various power states (Tick)
system.cpu.icache.prefetcher.demandMshrMisses          974                       # demands not covered by prefetchs (Count)
system.cpu.icache.prefetcher.pfIssued               0                       # number of hwpf issued (Count)
system.cpu.icache.prefetcher.pfUseful               0                       # number of useful prefetch (Count)
system.cpu.icache.prefetcher.pfUsefulButMiss            0                       # number of hit on prefetch but cache block is not in an usable state (Count)
system.cpu.icache.prefetcher.accuracy             nan                       # accuracy of the prefetcher (Count)
[...]
system.mem_ctrls.dram.perBankWrBursts::28            0                       # Per bank write bursts (Count)
system.mem_ctrls.dram.perBankWrBursts::29            0                       # Per bank write bursts (Count)
system.mem_ctrls.dram.perBankWrBursts::30            0                       # Per bank write bursts (Count)
system.mem_ctrls.dram.perBankWrBursts::31            0                       # Per bank write bursts (Count)
system.mem_ctrls.dram.totQLat                12306510                       # Total ticks spent queuing (Tick)
system.mem_ctrls.dram.totBusLat               4804744                       # Total ticks spent in databus transfers (Tick)
system.mem_ctrls.dram.totMemAccLat           37529974                       # Total ticks spent from burst creation until serviced by the DRAM (Tick)
system.mem_ctrls.dram.avgQLat                 8534.33                       # Average queueing delay per DRAM burst ((Tick/Count))
system.mem_ctrls.dram.avgBusLat               3332.00                       # Average bus latency per DRAM burst ((Tick/Count))
system.mem_ctrls.dram.avgMemAccLat           26026.33                       # Average memory access latency per DRAM burst ((Tick/Count))
system.mem_ctrls.dram.readRowHits                1270                       # Number of row buffer hits during reads (Count)
system.mem_ctrls.dram.writeRowHits                  0                       # Number of row buffer hits during writes (Count)
system.mem_ctrls.dram.readRowHitRate            88.07                       # Row buffer hit rate for reads (Ratio)
system.mem_ctrls.dram.writeRowHitRate             nan                       # Row buffer hit rate for writes (Ratio)
system.mem_ctrls.dram.bytesPerActivate::samples          169                       # Bytes accessed per row activation (Byte)
system.mem_ctrls.dram.bytesPerActivate::mean   543.053254                       # Bytes accessed per row activation (Byte)
system.mem_ctrls.dram.bytesPerActivate::gmean   373.001232                       # Bytes accessed per row activation (Byte)
system.mem_ctrls.dram.bytesPerActivate::stdev   378.313870                       # Bytes accessed per row activation (Byte)
system.mem_ctrls.dram.bytesPerActivate::0-127           26     15.38%     15.38% # Bytes accessed per row activation (Byte)
system.mem_ctrls.dram.bytesPerActivate::128-255           22     13.02%     28.40% # Bytes accessed per row activation (Byte)
system.mem_ctrls.dram.bytesPerActivate::256-383           24     14.20%     42.60% # Bytes accessed per row activation (Byte)
system.mem_ctrls.dram.bytesPerActivate::384-511           14      8.28%     50.89% # Bytes accessed per row activation (Byte)
system.mem_ctrls.dram.bytesPerActivate::512-639           13      7.69%     58.58% # Bytes accessed per row activation (Byte)
system.mem_ctrls.dram.bytesPerActivate::640-767            9      5.33%     63.91% # Bytes accessed per row activation (Byte)
system.mem_ctrls.dram.bytesPerActivate::768-895            5      2.96%     66.86% # Bytes accessed per row activation (Byte)
system.mem_ctrls.dram.bytesPerActivate::896-1023            7      4.14%     71.01% # Bytes accessed per row activation (Byte)
system.mem_ctrls.dram.bytesPerActivate::1024-1151           49     28.99%    100.00% # Bytes accessed per row activation (Byte)
system.mem_ctrls.dram.bytesPerActivate::total          169                       # Bytes accessed per row activation (Byte)
system.mem_ctrls.dram.bytesRead                 92288                       # Total bytes read (Byte)
system.mem_ctrls.dram.bytesWritten                  0                       # Total bytes written (Byte)
system.mem_ctrls.dram.avgRdBW             1050.577722                       # Average DRAM read bandwidth in MiBytes/s ((Byte/Second))
system.mem_ctrls.dram.avgWrBW                       0                       # Average DRAM write bandwidth in MiBytes/s ((Byte/Second))
system.mem_ctrls.dram.peakBW                 19207.00                       # Theoretical peak bandwidth in MiByte/s ((Byte/Second))
system.mem_ctrls.dram.busUtil                    5.47                       # Data bus utilization in percentage (Ratio)
system.mem_ctrls.dram.busUtilRead                5.47                       # Data bus utilization in percentage for reads (Ratio)
system.mem_ctrls.dram.busUtilWrite               0.00                       # Data bus utilization in percentage for writes (Ratio)
system.mem_ctrls.dram.pageHitRate               88.07                       # Row buffer hit rate, read and write combined (Ratio)
system.mem_ctrls.dram.power_state.pwrStateResidencyTicks::UNDEFINED     87845000                       # Cumulative time (in ticks) in various power states (Tick)
system.mem_ctrls.dram.rank0.actEnergy    169971.984000                       # Energy for activate commands per rank (pJ) (Joule)
system.mem_ctrls.dram.rank0.preEnergy    294560.128800                       # Energy for precharge commands per rank (pJ) (Joule)
system.mem_ctrls.dram.rank0.readEnergy   2663358.230400                       # Energy for read commands per rank (pJ) (Joule)
system.mem_ctrls.dram.rank0.writeEnergy             0                       # Energy for write commands per rank (pJ) (Joule)
system.mem_ctrls.dram.rank0.refreshEnergy 7434411.045600                       # Energy for refresh commands per rank (pJ) (Joule)
system.mem_ctrls.dram.rank0.actBackEnergy 41110845.081600                       # Energy for active background per rank (pJ) (Joule)
system.mem_ctrls.dram.rank0.preBackEnergy 291739.257600                       # Energy for precharge background per rank (pJ) (Joule)
system.mem_ctrls.dram.rank0.actPowerDownEnergy            0                       # Energy for active power-down per rank (pJ) (Joule)
system.mem_ctrls.dram.rank0.prePowerDownEnergy            0                       # Energy for precharge power-down per rank (pJ) (Joule)
system.mem_ctrls.dram.rank0.selfRefreshEnergy            0                       # Energy for self refresh per rank (pJ) (Joule)
system.mem_ctrls.dram.rank0.totalEnergy  51964885.728000                       # Total energy per rank (pJ) (Joule)
system.mem_ctrls.dram.rank0.averagePower   591.552003                       # Core power per rank (mW) (Watt)
system.mem_ctrls.dram.rank0.totalIdleTime            0                       # Total Idle time Per DRAM Rank (Tick)
system.mem_ctrls.dram.rank0.pwrStateTime::IDLE       575920                       # Time in different power states (Tick)
system.mem_ctrls.dram.rank0.pwrStateTime::REF      3850000                       # Time in different power states (Tick)
system.mem_ctrls.dram.rank0.pwrStateTime::SREF            0                       # Time in different power states (Tick)
system.mem_ctrls.dram.rank0.pwrStateTime::PRE_PDN            0                       # Time in different power states (Tick)
system.mem_ctrls.dram.rank0.pwrStateTime::ACT     83419080                       # Time in different power states (Tick)
system.mem_ctrls.dram.rank0.pwrStateTime::ACT_PDN            0                       # Time in different power states (Tick)
system.mem_ctrls.dram.rank1.actEnergy    98240.688000                       # Energy for activate commands per rank (pJ) (Joule)
system.mem_ctrls.dram.rank1.preEnergy    170679.700800                       # Energy for precharge commands per rank (pJ) (Joule)
system.mem_ctrls.dram.rank1.readEnergy   1291907.030400                       # Energy for read commands per rank (pJ) (Joule)
system.mem_ctrls.dram.rank1.writeEnergy             0                       # Energy for write commands per rank (pJ) (Joule)
system.mem_ctrls.dram.rank1.refreshEnergy 7434411.045600                       # Energy for refresh commands per rank (pJ) (Joule)
system.mem_ctrls.dram.rank1.actBackEnergy 39126273.228000                       # Energy for active background per rank (pJ) (Joule)
system.mem_ctrls.dram.rank1.preBackEnergy 1661799.014400                       # Energy for precharge background per rank (pJ) (Joule)
system.mem_ctrls.dram.rank1.actPowerDownEnergy            0                       # Energy for active power-down per rank (pJ) (Joule)
system.mem_ctrls.dram.rank1.prePowerDownEnergy            0                       # Energy for precharge power-down per rank (pJ) (Joule)
system.mem_ctrls.dram.rank1.selfRefreshEnergy            0                       # Energy for self refresh per rank (pJ) (Joule)
system.mem_ctrls.dram.rank1.totalEnergy  49783310.707200                       # Total energy per rank (pJ) (Joule)
system.mem_ctrls.dram.rank1.averagePower   566.717636                       # Core power per rank (mW) (Watt)
system.mem_ctrls.dram.rank1.totalIdleTime            0                       # Total Idle time Per DRAM Rank (Tick)
system.mem_ctrls.dram.rank1.pwrStateTime::IDLE      4787760                       # Time in different power states (Tick)
system.mem_ctrls.dram.rank1.pwrStateTime::REF      3850000                       # Time in different power states (Tick)
system.mem_ctrls.dram.rank1.pwrStateTime::SREF            0                       # Time in different power states (Tick)
system.mem_ctrls.dram.rank1.pwrStateTime::PRE_PDN            0                       # Time in different power states (Tick)
system.mem_ctrls.dram.rank1.pwrStateTime::ACT     79207240                       # Time in different power states (Tick)
system.mem_ctrls.dram.rank1.pwrStateTime::ACT_PDN            0                       # Time in different power states (Tick)
system.mem_ctrls.power_state.pwrStateResidencyTicks::UNDEFINED     87845000                       # Cumulative time (in ticks) in various power states (Tick)
system.membus.transDist::ReadResp                1159                       # Transaction distribution (Count)
system.membus.transDist::ReadExReq                283                       # Transaction distribution (Count)
system.membus.transDist::ReadExResp               283                       # Transaction distribution (Count)
system.membus.transDist::ReadSharedReq           1159                       # Transaction distribution (Count)
system.membus.transDist::InvalidateReq             52                       # Transaction distribution (Count)
system.membus.pktCount_system.l2.mem_side_port::system.mem_ctrls.port         2936                       # Packet count per connected requestor and responder (Count)
system.membus.pktCount_system.l2.mem_side_port::total         2936                       # Packet count per connected requestor and responder (Count)
system.membus.pktCount::total                    2936                       # Packet count per connected requestor and responder (Count)
system.membus.pktSize_system.l2.mem_side_port::system.mem_ctrls.port        23072                       # Cumulative packet size per connected requestor and responder (Byte)
system.membus.pktSize_system.l2.mem_side_port::total        23072                       # Cumulative packet size per connected requestor and responder (Byte)
system.membus.pktSize::total                    23072                       # Cumulative packet size per connected requestor and responder (Byte)
system.membus.snoops                                0                       # Total snoops (Count)
system.membus.snoopTraffic                          0                       # Total snoop traffic (Byte)
system.membus.snoopFanout::samples               1494                       # Request fanout histogram (Count)
system.membus.snoopFanout::mean                     0                       # Request fanout histogram (Count)
system.membus.snoopFanout::stdev                    0                       # Request fanout histogram (Count)
system.membus.snoopFanout::underflows               0      0.00%      0.00% # Request fanout histogram (Count)
system.membus.snoopFanout::0                     1494    100.00%    100.00% # Request fanout histogram (Count)
system.membus.snoopFanout::1                        0      0.00%    100.00% # Request fanout histogram (Count)
system.membus.snoopFanout::2                        0      0.00%    100.00% # Request fanout histogram (Count)
system.membus.snoopFanout::overflows                0      0.00%    100.00% # Request fanout histogram (Count)
system.membus.snoopFanout::min_value                0                       # Request fanout histogram (Count)
system.membus.snoopFanout::max_value                0                       # Request fanout histogram (Count)
system.membus.snoopFanout::total                 1494                       # Request fanout histogram (Count)
system.membus.badaddr_responder.power_state.pwrStateResidencyTicks::UNDEFINED     87845000                       # Cumulative time (in ticks) in various power states (Tick)
system.membus.power_state.pwrStateResidencyTicks::UNDEFINED     87845000                       # Cumulative time (in ticks) in various power states (Tick)
system.membus.reqLayer1.occupancy             1494000                       # Layer occupancy (ticks) (Tick)
system.membus.reqLayer1.utilization               0.0                       # Layer utilization (Ratio)
system.membus.respLayer2.occupancy            3581026                       # Layer occupancy (ticks) (Tick)
system.membus.respLayer2.utilization              0.0                       # Layer utilization (Ratio)
system.membus.snoop_filter.totRequests           1494                       # Total number of requests made to the snoop filter. (Count)
system.membus.snoop_filter.hitSingleRequests            0                       # Number of requests hitting in the snoop filter with a single holder of the requested data. (Count)
system.membus.snoop_filter.hitMultiRequests            0                       # Number of requests hitting in the snoop filter with multiple (>1) holders of the requested data. (Count)
system.membus.snoop_filter.totSnoops                0                       # Total number of snoops made to the snoop filter. (Count)
system.membus.snoop_filter.hitSingleSnoops            0                       # Number of snoops hitting in the snoop filter with a single holder of the requested data. (Count)
system.membus.snoop_filter.hitMultiSnoops            0                       # Number of snoops hitting in the snoop filter with multiple (>1) holders of the requested data. (Count)
system.tol2bus.transDist::ReadResp               1159                       # Transaction distribution (Count)
system.tol2bus.transDist::ReadExReq               283                       # Transaction distribution (Count)
system.tol2bus.transDist::ReadExResp              283                       # Transaction distribution (Count)
system.tol2bus.transDist::ReadCleanReq            974                       # Transaction distribution (Count)
system.tol2bus.transDist::ReadSharedReq           186                       # Transaction distribution (Count)
system.tol2bus.transDist::InvalidateReq            52                       # Transaction distribution (Count)
system.tol2bus.transDist::InvalidateResp           52                       # Transaction distribution (Count)
system.tol2bus.pktCount_system.cpu.icache.mem_side_port::system.l2.cpu_side_port         1947                       # Packet count per connected requestor and responder (Count)
system.tol2bus.pktCount_system.cpu.dcache.mem_side_port::system.l2.cpu_side_port         1042                       # Packet count per connected requestor and responder (Count)
system.tol2bus.pktCount::total                   2989                       # Packet count per connected requestor and responder (Count)
system.tol2bus.pktSize_system.cpu.icache.mem_side_port::system.l2.cpu_side_port        15568                       # Cumulative packet size per connected requestor and responder (Byte)
system.tol2bus.pktSize_system.cpu.dcache.mem_side_port::system.l2.cpu_side_port         7504                       # Cumulative packet size per connected requestor and responder (Byte)
system.tol2bus.pktSize::total                   23072                       # Cumulative packet size per connected requestor and responder (Byte)
system.tol2bus.snoops                               0                       # Total snoops (Count)
system.tol2bus.snoopTraffic                         0                       # Total snoop traffic (Byte)
system.tol2bus.snoopFanout::samples              1495                       # Request fanout histogram (Count)
system.tol2bus.snoopFanout::mean                    0                       # Request fanout histogram (Count)
system.tol2bus.snoopFanout::stdev                   0                       # Request fanout histogram (Count)
system.tol2bus.snoopFanout::underflows              0      0.00%      0.00% # Request fanout histogram (Count)
system.tol2bus.snoopFanout::0                    1495    100.00%    100.00% # Request fanout histogram (Count)
system.tol2bus.snoopFanout::1                       0      0.00%    100.00% # Request fanout histogram (Count)
system.tol2bus.snoopFanout::2                       0      0.00%    100.00% # Request fanout histogram (Count)
system.tol2bus.snoopFanout::3                       0      0.00%    100.00% # Request fanout histogram (Count)
system.tol2bus.snoopFanout::4                       0      0.00%    100.00% # Request fanout histogram (Count)
system.tol2bus.snoopFanout::overflows               0      0.00%    100.00% # Request fanout histogram (Count)
system.tol2bus.snoopFanout::min_value               0                       # Request fanout histogram (Count)
system.tol2bus.snoopFanout::max_value               0                       # Request fanout histogram (Count)
system.tol2bus.snoopFanout::total                1495                       # Request fanout histogram (Count)
system.tol2bus.power_state.pwrStateResidencyTicks::UNDEFINED     87845000                       # Cumulative time (in ticks) in various power states (Tick)
system.tol2bus.reqLayer0.occupancy            1495000                       # Layer occupancy (ticks) (Tick)
system.tol2bus.reqLayer0.utilization              0.0                       # Layer utilization (Ratio)
system.tol2bus.respLayer0.occupancy           1946000                       # Layer occupancy (ticks) (Tick)
system.tol2bus.respLayer0.utilization             0.0                       # Layer utilization (Ratio)
system.tol2bus.respLayer1.occupancy            990000                       # Layer occupancy (ticks) (Tick)
system.tol2bus.respLayer1.utilization             0.0                       # Layer utilization (Ratio)
system.tol2bus.snoop_filter.totRequests          1495                       # Total number of requests made to the snoop filter. (Count)
system.tol2bus.snoop_filter.hitSingleRequests            0                       # Number of requests hitting in the snoop filter with a single holder of the requested data. (Count)
system.tol2bus.snoop_filter.hitMultiRequests            0                       # Number of requests hitting in the snoop filter with multiple (>1) holders of the requested data. (Count)
system.tol2bus.snoop_filter.totSnoops               0                       # Total number of snoops made to the snoop filter. (Count)
system.tol2bus.snoop_filter.hitSingleSnoops            0                       # Number of snoops hitting in the snoop filter with a single holder of the requested data. (Count)
system.tol2bus.snoop_filter.hitMultiSnoops            0                       # Number of snoops hitting in the snoop filter with multiple (>1) holders of the requested data. (Count)
system.voltage_domain.voltage                       1                       # Voltage in Volts (Volt)
system.workload.inst.arm                            0                       # number of arm instructions executed (Count)
system.workload.inst.quiesce                        0                       # number of quiesce instructions executed (Count)

---------- End Simulation Statistics   ----------
