
---------- Begin Simulation Statistics ----------
simSeconds                                  17.136217                       # Number of seconds simulated (Second)
simTicks                                 17136216522000                       # Number of ticks simulated (Tick)
finalTick                                17136216522000                       # Number of ticks from beginning of simulation (restored from checkpoints and never reset) (Tick)
simFreq                                  1000000000000                       # The number of ticks per simulated second ((Tick/Second))
hostSeconds                                 110802.16                       # Real time elapsed on the host (Second)
hostTickRate                                154655980                       # The number of ticks simulated per host second (ticks/s) ((Tick/Second))
hostMemory                                    8502664                       # Number of bytes of host memory used (Byte)
simInsts                                  42875645976                       # Number of instructions simulated (Count)
simOps                                    42875645976                       # Number of ops (including micro ops) simulated (Count)
hostInstRate                                   386957                       # Simulator instruction rate (inst/s) ((Count/Second))
hostOpRate                                     386957                       # Simulator op (including micro ops) rate (op/s) ((Count/Second))
system.bridge.power_state.pwrStateResidencyTicks::UNDEFINED 17136216522000                       # Cumulative time (in ticks) in various power states (Tick)
system.clk_domain.clock                          1000                       # Clock period in ticks (Tick)
system.cpu.numCycles                      17136216523                       # Number of cpu cycles simulated (Cycle)
system.cpu.numWorkItemsStarted                      0                       # Number of work items this cpu started (Count)
system.cpu.numWorkItemsCompleted                    0                       # Number of work items this cpu completed (Count)
system.cpu.instsAdded                     45334824785                       # Number of instructions added to the IQ (excludes non-spec) (Count)
system.cpu.nonSpecInstsAdded                     1469                       # Number of non-speculative instructions added to the IQ (Count)
system.cpu.instsIssued                    44548343314                       # Number of instructions issued (Count)
system.cpu.squashedInstsIssued               37861805                       # Number of squashed instructions issued (Count)
system.cpu.squashedInstsExamined           2459180277                       # Number of squashed instructions iterated over during squash; mainly for profiling (Count)
system.cpu.squashedOperandsExamined        1044115395                       # Number of squashed operands that are examined and possibly removed from graph (Count)
system.cpu.squashedNonSpecRemoved                1424                       # Number of squashed non-spec instructions that were removed (Count)
system.cpu.numIssuedDist::samples         17136205497                       # Number of insts issued each cycle (Count)
system.cpu.numIssuedDist::mean               2.599662                       # Number of insts issued each cycle (Count)
system.cpu.numIssuedDist::stdev              1.547636                       # Number of insts issued each cycle (Count)
system.cpu.numIssuedDist::underflows                0      0.00%      0.00% # Number of insts issued each cycle (Count)
system.cpu.numIssuedDist::0                3046338584     17.78%     17.78% # Number of insts issued each cycle (Count)
system.cpu.numIssuedDist::1                1741329777     10.16%     27.94% # Number of insts issued each cycle (Count)
system.cpu.numIssuedDist::2                1823445027     10.64%     38.58% # Number of insts issued each cycle (Count)
system.cpu.numIssuedDist::3                2940244953     17.16%     55.74% # Number of insts issued each cycle (Count)
system.cpu.numIssuedDist::4                7584847156     44.26%    100.00% # Number of insts issued each cycle (Count)
system.cpu.numIssuedDist::overflows                 0      0.00%    100.00% # Number of insts issued each cycle (Count)
system.cpu.numIssuedDist::min_value                 0                       # Number of insts issued each cycle (Count)
system.cpu.numIssuedDist::max_value                 4                       # Number of insts issued each cycle (Count)
system.cpu.numIssuedDist::total           17136205497                       # Number of insts issued each cycle (Count)
system.cpu.statFuBusy::No_OpClass                   0      0.00%      0.00% # attempts to use FU when none available (Count)
system.cpu.statFuBusy::IntAlu                       0      0.00%      0.00% # attempts to use FU when none available (Count)
system.cpu.statFuBusy::IntMult               31107344     57.30%     57.30% # attempts to use FU when none available (Count)
system.cpu.statFuBusy::IntDiv                     386      0.00%     57.30% # attempts to use FU when none available (Count)
system.cpu.statFuBusy::FloatAdd                     0      0.00%     57.30% # attempts to use FU when none available (Count)
system.cpu.statFuBusy::FloatCmp                     0      0.00%     57.30% # attempts to use FU when none available (Count)
system.cpu.statFuBusy::FloatCvt                     0      0.00%     57.30% # attempts to use FU when none available (Count)
system.cpu.statFuBusy::FloatMult                    0      0.00%     57.30% # attempts to use FU when none available (Count)
system.cpu.statFuBusy::FloatMultAcc                 0      0.00%     57.30% # attempts to use FU when none available (Count)
system.cpu.statFuBusy::FloatDiv                     0      0.00%     57.30% # attempts to use FU when none available (Count)
system.cpu.statFuBusy::FloatMisc                    0      0.00%     57.30% # attempts to use FU when none available (Count)
system.cpu.statFuBusy::FloatSqrt                    0      0.00%     57.30% # attempts to use FU when none available (Count)
system.cpu.statFuBusy::SimdAdd                      0      0.00%     57.30% # attempts to use FU when none available (Count)
system.cpu.statFuBusy::SimdAddAcc                   0      0.00%     57.30% # attempts to use FU when none available (Count)
system.cpu.statFuBusy::SimdAlu                      0      0.00%     57.30% # attempts to use FU when none available (Count)
system.cpu.statFuBusy::SimdCmp                      0      0.00%     57.30% # attempts to use FU when none available (Count)
system.cpu.statFuBusy::SimdCvt                      0      0.00%     57.30% # attempts to use FU when none available (Count)
system.cpu.statFuBusy::SimdMisc                     0      0.00%     57.30% # attempts to use FU when none available (Count)
system.cpu.statFuBusy::SimdMult                     0      0.00%     57.30% # attempts to use FU when none available (Count)
system.cpu.statFuBusy::SimdMultAcc                  0      0.00%     57.30% # attempts to use FU when none available (Count)
system.cpu.statFuBusy::SimdShift                    0      0.00%     57.30% # attempts to use FU when none available (Count)
system.cpu.statFuBusy::SimdShiftAcc                 0      0.00%     57.30% # attempts to use FU when none available (Count)
system.cpu.statFuBusy::SimdDiv                      0      0.00%     57.30% # attempts to use FU when none available (Count)
system.cpu.statFuBusy::SimdSqrt                     0      0.00%     57.30% # attempts to use FU when none available (Count)
system.cpu.statFuBusy::SimdFloatAdd                 0      0.00%     57.30% # attempts to use FU when none available (Count)
system.cpu.statFuBusy::SimdFloatAlu                 0      0.00%     57.30% # attempts to use FU when none available (Count)
system.cpu.statFuBusy::SimdFloatCmp                 0      0.00%     57.30% # attempts to use FU when none available (Count)
system.cpu.statFuBusy::SimdFloatCvt                 0      0.00%     57.30% # attempts to use FU when none available (Count)
system.cpu.statFuBusy::SimdFloatDiv                 0      0.00%     57.30% # attempts to use FU when none available (Count)
system.cpu.statFuBusy::SimdFloatMisc                0      0.00%     57.30% # attempts to use FU when none available (Count)
system.cpu.statFuBusy::SimdFloatMult                0      0.00%     57.30% # attempts to use FU when none available (Count)
system.cpu.statFuBusy::SimdFloatMultAcc             0      0.00%     57.30% # attempts to use FU when none available (Count)
system.cpu.statFuBusy::SimdFloatSqrt                0      0.00%     57.30% # attempts to use FU when none available (Count)
system.cpu.statFuBusy::SimdReduceAdd                0      0.00%     57.30% # attempts to use FU when none available (Count)
system.cpu.statFuBusy::SimdReduceAlu                0      0.00%     57.30% # attempts to use FU when none available (Count)
system.cpu.statFuBusy::SimdReduceCmp                0      0.00%     57.30% # attempts to use FU when none available (Count)
system.cpu.statFuBusy::SimdFloatReduceAdd            0      0.00%     57.30% # attempts to use FU when none available (Count)
system.cpu.statFuBusy::SimdFloatReduceCmp            0      0.00%     57.30% # attempts to use FU when none available (Count)
system.cpu.statFuBusy::SimdAes                      0      0.00%     57.30% # attempts to use FU when none available (Count)
system.cpu.statFuBusy::SimdAesMix                   0      0.00%     57.30% # attempts to use FU when none available (Count)
system.cpu.statFuBusy::SimdSha1Hash                 0      0.00%     57.30% # attempts to use FU when none available (Count)
system.cpu.statFuBusy::SimdSha1Hash2                0      0.00%     57.30% # attempts to use FU when none available (Count)
system.cpu.statFuBusy::SimdSha256Hash               0      0.00%     57.30% # attempts to use FU when none available (Count)
system.cpu.statFuBusy::SimdSha256Hash2              0      0.00%     57.30% # attempts to use FU when none available (Count)
system.cpu.statFuBusy::SimdShaSigma2                0      0.00%     57.30% # attempts to use FU when none available (Count)
system.cpu.statFuBusy::SimdShaSigma3                0      0.00%     57.30% # attempts to use FU when none available (Count)
system.cpu.statFuBusy::SimdPredAlu                  0      0.00%     57.30% # attempts to use FU when none available (Count)
system.cpu.statFuBusy::MemRead                      0      0.00%     57.30% # attempts to use FU when none available (Count)
system.cpu.statFuBusy::MemWrite              23180952     42.70%    100.00% # attempts to use FU when none available (Count)
system.cpu.statFuBusy::FloatMemRead                 0      0.00%    100.00% # attempts to use FU when none available (Count)
system.cpu.statFuBusy::FloatMemWrite                0      0.00%    100.00% # attempts to use FU when none available (Count)
system.cpu.statFuBusy::IprAccess                    0      0.00%    100.00% # attempts to use FU when none available (Count)
system.cpu.statFuBusy::InstPrefetch                 0      0.00%    100.00% # attempts to use FU when none available (Count)
system.cpu.statIssuedInstType_0::No_OpClass           45      0.00%      0.00% # Number of instructions issued per FU type, per thread (Count)
system.cpu.statIssuedInstType_0::IntAlu   34867116589     78.27%     78.27% # Number of instructions issued per FU type, per thread (Count)
system.cpu.statIssuedInstType_0::IntMult   1137950049      2.55%     80.82% # Number of instructions issued per FU type, per thread (Count)
system.cpu.statIssuedInstType_0::IntDiv           266      0.00%     80.82% # Number of instructions issued per FU type, per thread (Count)
system.cpu.statIssuedInstType_0::FloatAdd            0      0.00%     80.82% # Number of instructions issued per FU type, per thread (Count)
system.cpu.statIssuedInstType_0::FloatCmp            6      0.00%     80.82% # Number of instructions issued per FU type, per thread (Count)
system.cpu.statIssuedInstType_0::FloatCvt           21      0.00%     80.82% # Number of instructions issued per FU type, per thread (Count)
system.cpu.statIssuedInstType_0::FloatMult            0      0.00%     80.82% # Number of instructions issued per FU type, per thread (Count)
system.cpu.statIssuedInstType_0::FloatMultAcc            0      0.00%     80.82% # Number of instructions issued per FU type, per thread (Count)
system.cpu.statIssuedInstType_0::FloatDiv           11      0.00%     80.82% # Number of instructions issued per FU type, per thread (Count)
system.cpu.statIssuedInstType_0::FloatMisc            0      0.00%     80.82% # Number of instructions issued per FU type, per thread (Count)
system.cpu.statIssuedInstType_0::FloatSqrt            0      0.00%     80.82% # Number of instructions issued per FU type, per thread (Count)
system.cpu.statIssuedInstType_0::SimdAdd            0      0.00%     80.82% # Number of instructions issued per FU type, per thread (Count)
system.cpu.statIssuedInstType_0::SimdAddAcc            0      0.00%     80.82% # Number of instructions issued per FU type, per thread (Count)
system.cpu.statIssuedInstType_0::SimdAlu            0      0.00%     80.82% # Number of instructions issued per FU type, per thread (Count)
system.cpu.statIssuedInstType_0::SimdCmp            0      0.00%     80.82% # Number of instructions issued per FU type, per thread (Count)
system.cpu.statIssuedInstType_0::SimdCvt            0      0.00%     80.82% # Number of instructions issued per FU type, per thread (Count)
system.cpu.statIssuedInstType_0::SimdMisc            0      0.00%     80.82% # Number of instructions issued per FU type, per thread (Count)
system.cpu.statIssuedInstType_0::SimdMult            0      0.00%     80.82% # Number of instructions issued per FU type, per thread (Count)
system.cpu.statIssuedInstType_0::SimdMultAcc            0      0.00%     80.82% # Number of instructions issued per FU type, per thread (Count)
system.cpu.statIssuedInstType_0::SimdShift            0      0.00%     80.82% # Number of instructions issued per FU type, per thread (Count)
system.cpu.statIssuedInstType_0::SimdShiftAcc            0      0.00%     80.82% # Number of instructions issued per FU type, per thread (Count)
system.cpu.statIssuedInstType_0::SimdDiv            0      0.00%     80.82% # Number of instructions issued per FU type, per thread (Count)
system.cpu.statIssuedInstType_0::SimdSqrt            0      0.00%     80.82% # Number of instructions issued per FU type, per thread (Count)
system.cpu.statIssuedInstType_0::SimdFloatAdd            0      0.00%     80.82% # Number of instructions issued per FU type, per thread (Count)
system.cpu.statIssuedInstType_0::SimdFloatAlu            0      0.00%     80.82% # Number of instructions issued per FU type, per thread (Count)
system.cpu.statIssuedInstType_0::SimdFloatCmp            0      0.00%     80.82% # Number of instructions issued per FU type, per thread (Count)
system.cpu.statIssuedInstType_0::SimdFloatCvt            0      0.00%     80.82% # Number of instructions issued per FU type, per thread (Count)
system.cpu.statIssuedInstType_0::SimdFloatDiv            0      0.00%     80.82% # Number of instructions issued per FU type, per thread (Count)
system.cpu.statIssuedInstType_0::SimdFloatMisc            0      0.00%     80.82% # Number of instructions issued per FU type, per thread (Count)
system.cpu.statIssuedInstType_0::SimdFloatMult            0      0.00%     80.82% # Number of instructions issued per FU type, per thread (Count)
system.cpu.statIssuedInstType_0::SimdFloatMultAcc            0      0.00%     80.82% # Number of instructions issued per FU type, per thread (Count)
system.cpu.statIssuedInstType_0::SimdFloatSqrt            0      0.00%     80.82% # Number of instructions issued per FU type, per thread (Count)
system.cpu.statIssuedInstType_0::SimdReduceAdd            0      0.00%     80.82% # Number of instructions issued per FU type, per thread (Count)
system.cpu.statIssuedInstType_0::SimdReduceAlu            0      0.00%     80.82% # Number of instructions issued per FU type, per thread (Count)
system.cpu.statIssuedInstType_0::SimdReduceCmp            0      0.00%     80.82% # Number of instructions issued per FU type, per thread (Count)
system.cpu.statIssuedInstType_0::SimdFloatReduceAdd            0      0.00%     80.82% # Number of instructions issued per FU type, per thread (Count)
system.cpu.statIssuedInstType_0::SimdFloatReduceCmp            0      0.00%     80.82% # Number of instructions issued per FU type, per thread (Count)
system.cpu.statIssuedInstType_0::SimdAes            0      0.00%     80.82% # Number of instructions issued per FU type, per thread (Count)
system.cpu.statIssuedInstType_0::SimdAesMix            0      0.00%     80.82% # Number of instructions issued per FU type, per thread (Count)
system.cpu.statIssuedInstType_0::SimdSha1Hash            0      0.00%     80.82% # Number of instructions issued per FU type, per thread (Count)
system.cpu.statIssuedInstType_0::SimdSha1Hash2            0      0.00%     80.82% # Number of instructions issued per FU type, per thread (Count)
system.cpu.statIssuedInstType_0::SimdSha256Hash            0      0.00%     80.82% # Number of instructions issued per FU type, per thread (Count)
system.cpu.statIssuedInstType_0::SimdSha256Hash2            0      0.00%     80.82% # Number of instructions issued per FU type, per thread (Count)
system.cpu.statIssuedInstType_0::SimdShaSigma2            0      0.00%     80.82% # Number of instructions issued per FU type, per thread (Count)
system.cpu.statIssuedInstType_0::SimdShaSigma3            0      0.00%     80.82% # Number of instructions issued per FU type, per thread (Count)
system.cpu.statIssuedInstType_0::SimdPredAlu            0      0.00%     80.82% # Number of instructions issued per FU type, per thread (Count)
system.cpu.statIssuedInstType_0::MemRead   6715465755     15.07%     95.90% # Number of instructions issued per FU type, per thread (Count)
system.cpu.statIssuedInstType_0::MemWrite   1827810554      4.10%    100.00% # Number of instructions issued per FU type, per thread (Count)
system.cpu.statIssuedInstType_0::FloatMemRead           17      0.00%    100.00% # Number of instructions issued per FU type, per thread (Count)
system.cpu.statIssuedInstType_0::FloatMemWrite            1      0.00%    100.00% # Number of instructions issued per FU type, per thread (Count)
system.cpu.statIssuedInstType_0::IprAccess            0      0.00%    100.00% # Number of instructions issued per FU type, per thread (Count)
system.cpu.statIssuedInstType_0::InstPrefetch            0      0.00%    100.00% # Number of instructions issued per FU type, per thread (Count)
system.cpu.statIssuedInstType_0::total    44548343314                       # Number of instructions issued per FU type, per thread (Count)
system.cpu.issueRate                         2.599660                       # Inst issue rate ((Count/Cycle))
system.cpu.fuBusy                            54288682                       # FU busy when requested (Count)
system.cpu.fuBusyRate                        0.001219                       # FU busy rate (busy events/executed inst) ((Count/Count))
system.cpu.intInstQueueReads             106325042500                       # Number of integer instruction queue reads (Count)
system.cpu.intInstQueueWrites             47794244598                       # Number of integer instruction queue writes (Count)
system.cpu.intInstQueueWakeupAccesses     44230646361                       # Number of integer instruction queue wakeup accesses (Count)
system.cpu.fpInstQueueReads                       112                       # Number of floating instruction queue reads (Count)
system.cpu.fpInstQueueWrites                       60                       # Number of floating instruction queue writes (Count)
system.cpu.fpInstQueueWakeupAccesses               55                       # Number of floating instruction queue wakeup accesses (Count)
system.cpu.vecInstQueueReads                        0                       # Number of vector instruction queue reads (Count)
system.cpu.vecInstQueueWrites                       0                       # Number of vector instruction queue writes (Count)
system.cpu.vecInstQueueWakeupAccesses               0                       # Number of vector instruction queue wakeup accesses (Count)
system.cpu.intAluAccesses                 44602631895                       # Number of integer alu accesses (Count)
system.cpu.fpAluAccesses                           56                       # Number of floating point alu accesses (Count)
system.cpu.vecAluAccesses                           0                       # Number of vector alu accesses (Count)
system.cpu.numInsts                       44250021228                       # Number of executed instructions (Count)
system.cpu.numLoadInsts                    6705618562                       # Number of load instructions executed (Count)
system.cpu.numSquashedInsts                 298322086                       # Number of squashed instructions skipped in execute (Count)
system.cpu.numSwp                                   0                       # Number of swp insts executed (Count)
system.cpu.numNop                                   0                       # Number of nop insts executed (Count)
system.cpu.numRefs                         8530681997                       # Number of memory reference insts executed (Count)
system.cpu.numBranches                     9033015736                       # Number of branches executed (Count)
system.cpu.numStoreInsts                   1825063435                       # Number of stores executed (Count)
system.cpu.numRate                           2.582252                       # Inst execution rate ((Count/Cycle))
system.cpu.timesIdled                             205                       # Number of times that the entire CPU went into an idle state and unscheduled itself (Count)
system.cpu.idleCycles                           11026                       # Total number of cycles that the CPU has spent unscheduled due to idling (Cycle)
system.cpu.committedInsts                 42875645976                       # Number of Instructions Simulated (Count)
system.cpu.committedOps                   42875645976                       # Number of Ops (including micro ops) Simulated (Count)
system.cpu.cpi                               0.399672                       # CPI: Cycles Per Instruction ((Cycle/Count))
system.cpu.totalCpi                          0.399672                       # CPI: Total CPI of All Threads ((Cycle/Count))
system.cpu.ipc                               2.502049                       # IPC: Instructions Per Cycle ((Count/Cycle))
system.cpu.totalIpc                          2.502049                       # IPC: Total IPC of All Threads ((Count/Cycle))
system.cpu.intRegfileReads                53440269869                       # Number of integer regfile reads (Count)
system.cpu.intRegfileWrites               33620446312                       # Number of integer regfile writes (Count)
system.cpu.fpRegfileReads                          44                       # Number of floating regfile reads (Count)
system.cpu.fpRegfileWrites                         39                       # Number of floating regfile writes (Count)
system.cpu.miscRegfileReads                       179                       # number of misc regfile reads (Count)
system.cpu.miscRegfileWrites                       36                       # number of misc regfile writes (Count)
system.cpu.MemDepUnit__0.insertedLoads     6759712657                       # Number of loads inserted to the mem dependence unit. (Count)
system.cpu.MemDepUnit__0.insertedStores    1851057333                       # Number of stores inserted to the mem dependence unit. (Count)
system.cpu.MemDepUnit__0.conflictingLoads    629334567                       # Number of conflicting loads. (Count)
system.cpu.MemDepUnit__0.conflictingStores    814327270                       # Number of conflicting stores. (Count)
system.cpu.MemDepUnit__1.insertedLoads              0                       # Number of loads inserted to the mem dependence unit. (Count)
system.cpu.MemDepUnit__1.insertedStores             0                       # Number of stores inserted to the mem dependence unit. (Count)
system.cpu.MemDepUnit__1.conflictingLoads            0                       # Number of conflicting loads. (Count)
system.cpu.MemDepUnit__1.conflictingStores            0                       # Number of conflicting stores. (Count)
system.cpu.MemDepUnit__2.insertedLoads              0                       # Number of loads inserted to the mem dependence unit. (Count)
system.cpu.MemDepUnit__2.insertedStores             0                       # Number of stores inserted to the mem dependence unit. (Count)
system.cpu.MemDepUnit__2.conflictingLoads            0                       # Number of conflicting loads. (Count)
system.cpu.MemDepUnit__2.conflictingStores            0                       # Number of conflicting stores. (Count)
system.cpu.MemDepUnit__3.insertedLoads              0                       # Number of loads inserted to the mem dependence unit. (Count)
system.cpu.MemDepUnit__3.insertedStores             0                       # Number of stores inserted to the mem dependence unit. (Count)
system.cpu.MemDepUnit__3.conflictingLoads            0                       # Number of conflicting loads. (Count)
system.cpu.MemDepUnit__3.conflictingStores            0                       # Number of conflicting stores. (Count)
system.cpu.branchPred.lookups             12559952678                       # Number of BP lookups (Count)
system.cpu.branchPred.condPredicted       11090604318                       # Number of conditional branches predicted (Count)
system.cpu.branchPred.condIncorrect         276423267                       # Number of conditional branches incorrect (Count)
system.cpu.branchPred.BTBLookups           7480075252                       # Number of BTB lookups (Count)
system.cpu.branchPred.BTBHits              7478455319                       # Number of BTB hits (Count)
system.cpu.branchPred.BTBHitRatio            0.999783                       # BTB Hit Ratio (Ratio)
system.cpu.branchPred.RASUsed               277781573                       # Number of times the RAS was used to get a target. (Count)
system.cpu.branchPred.RASIncorrect                  0                       # Number of incorrect RAS predictions. (Count)
system.cpu.branchPred.indirectLookups        68866844                       # Number of indirect predictor lookups. (Count)
system.cpu.branchPred.indirectHits           68695736                       # Number of indirect target hits. (Count)
system.cpu.branchPred.indirectMisses           171108                       # Number of indirect misses. (Count)
system.cpu.branchPred.indirectMispredicted       242298                       # Number of mispredicted indirect branches. (Count)
system.cpu.branchPred.loop_predictor.correct   5333506352                       # Number of times the loop predictor is the provider and the prediction is correct (Count)
system.cpu.branchPred.loop_predictor.wrong   2226015102                       # Number of times the loop predictor is the provider and the prediction is wrong (Count)
system.cpu.branchPred.tage.longestMatchProviderCorrect   4729516926                       # Number of times TAGE Longest Match is the provider and the prediction is correct (Count)
system.cpu.branchPred.tage.altMatchProviderCorrect     35378228                       # Number of times TAGE Alt Match is the provider and the prediction is correct (Count)
system.cpu.branchPred.tage.bimodalAltMatchProviderCorrect     11854515                       # Number of times TAGE Alt Match is the bimodal and it is the provider and the prediction is correct (Count)
system.cpu.branchPred.tage.bimodalProviderCorrect   2572016268                       # Number of times there are no hits on the TAGE tables and the bimodal prediction is correct (Count)
system.cpu.branchPred.tage.longestMatchProviderWrong    162140475                       # Number of times TAGE Longest Match is the provider and the prediction is wrong (Count)
system.cpu.branchPred.tage.altMatchProviderWrong     29412465                       # Number of times TAGE Alt Match is the provider and the prediction is wrong (Count)
system.cpu.branchPred.tage.bimodalAltMatchProviderWrong      9741126                       # Number of times TAGE Alt Match is the bimodal and it is the provider and the prediction is wrong (Count)
system.cpu.branchPred.tage.bimodalProviderWrong      9461451                       # Number of times there are no hits on the TAGE tables and the bimodal prediction is wrong (Count)
system.cpu.branchPred.tage.altMatchProviderWouldHaveHit     64888698                       # Number of times TAGE Longest Match is the provider, the prediction is wrong and Alt Match prediction was correct (Count)
system.cpu.branchPred.tage.longestMatchProviderWouldHaveHit     20738546                       # Number of times TAGE Alt Match is the provider, the prediction is wrong and Longest Match prediction was correct (Count)
system.cpu.branchPred.tage.longestMatchProvider::0            0                       # TAGE provider for longest match (Count)
system.cpu.branchPred.tage.longestMatchProvider::1    695362461                       # TAGE provider for longest match (Count)
system.cpu.branchPred.tage.longestMatchProvider::2   1922697808                       # TAGE provider for longest match (Count)
system.cpu.branchPred.tage.longestMatchProvider::3   1179559133                       # TAGE provider for longest match (Count)
system.cpu.branchPred.tage.longestMatchProvider::4    409074583                       # TAGE provider for longest match (Count)
system.cpu.branchPred.tage.longestMatchProvider::5    247931703                       # TAGE provider for longest match (Count)
system.cpu.branchPred.tage.longestMatchProvider::6    275360642                       # TAGE provider for longest match (Count)
system.cpu.branchPred.tage.longestMatchProvider::7     65978120                       # TAGE provider for longest match (Count)
system.cpu.branchPred.tage.longestMatchProvider::8     64951126                       # TAGE provider for longest match (Count)
system.cpu.branchPred.tage.longestMatchProvider::9     27929767                       # TAGE provider for longest match (Count)
system.cpu.branchPred.tage.longestMatchProvider::10     13256475                       # TAGE provider for longest match (Count)
system.cpu.branchPred.tage.longestMatchProvider::11     10243709                       # TAGE provider for longest match (Count)
system.cpu.branchPred.tage.longestMatchProvider::12     44102567                       # TAGE provider for longest match (Count)
system.cpu.branchPred.tage.altMatchProvider::0   2001152080                       # TAGE provider for alt match (Count)
system.cpu.branchPred.tage.altMatchProvider::1   1270386613                       # TAGE provider for alt match (Count)
system.cpu.branchPred.tage.altMatchProvider::2   1087764801                       # TAGE provider for alt match (Count)
system.cpu.branchPred.tage.altMatchProvider::3    403400902                       # TAGE provider for alt match (Count)
system.cpu.branchPred.tage.altMatchProvider::4     59573385                       # TAGE provider for alt match (Count)
system.cpu.branchPred.tage.altMatchProvider::5     78354621                       # TAGE provider for alt match (Count)
system.cpu.branchPred.tage.altMatchProvider::6     20573292                       # TAGE provider for alt match (Count)
system.cpu.branchPred.tage.altMatchProvider::7      5454661                       # TAGE provider for alt match (Count)
system.cpu.branchPred.tage.altMatchProvider::8      3646197                       # TAGE provider for alt match (Count)
system.cpu.branchPred.tage.altMatchProvider::9      4412357                       # TAGE provider for alt match (Count)
system.cpu.branchPred.tage.altMatchProvider::10      7635868                       # TAGE provider for alt match (Count)
system.cpu.branchPred.tage.altMatchProvider::11     14093317                       # TAGE provider for alt match (Count)
system.cpu.branchPred.tage.altMatchProvider::12            0                       # TAGE provider for alt match (Count)
system.cpu.commit.commitSquashedInsts      2459180265                       # The number of squashed insts skipped by commit (Count)
system.cpu.commit.commitNonSpecStalls              45                       # The number of times commit has been forced to stall to communicate backwards (Count)
system.cpu.commit.branchMispredicts         217269548                       # The number of times a branch was mispredicted (Count)
system.cpu.commit.numCommittedDist::samples  16431632462                       # Number of insts commited each cycle (Count)
system.cpu.commit.numCommittedDist::mean     2.609336                       # Number of insts commited each cycle (Count)
system.cpu.commit.numCommittedDist::stdev     1.642148                       # Number of insts commited each cycle (Count)
system.cpu.commit.numCommittedDist::underflows            0      0.00%      0.00% # Number of insts commited each cycle (Count)
system.cpu.commit.numCommittedDist::0      3295348155     20.05%     20.05% # Number of insts commited each cycle (Count)
system.cpu.commit.numCommittedDist::1      1801288363     10.96%     31.02% # Number of insts commited each cycle (Count)
system.cpu.commit.numCommittedDist::2      1442744928      8.78%     39.80% # Number of insts commited each cycle (Count)
system.cpu.commit.numCommittedDist::3      1380136307      8.40%     48.20% # Number of insts commited each cycle (Count)
system.cpu.commit.numCommittedDist::4      8512114709     51.80%    100.00% # Number of insts commited each cycle (Count)
system.cpu.commit.numCommittedDist::overflows            0      0.00%    100.00% # Number of insts commited each cycle (Count)
system.cpu.commit.numCommittedDist::min_value            0                       # Number of insts commited each cycle (Count)
system.cpu.commit.numCommittedDist::max_value            4                       # Number of insts commited each cycle (Count)
system.cpu.commit.numCommittedDist::total  16431632462                       # Number of insts commited each cycle (Count)
system.cpu.commit.instsCommitted          42875645976                       # Number of instructions committed (Count)
system.cpu.commit.opsCommitted            42875645976                       # Number of ops (including micro ops) committed (Count)
system.cpu.commit.memRefs                  8466283794                       # Number of memory references committed (Count)
system.cpu.commit.loads                    6653857723                       # Number of loads committed (Count)
system.cpu.commit.amos                              0                       # Number of atomic instructions committed (Count)
system.cpu.commit.membars                           0                       # Number of memory barriers committed (Count)
system.cpu.commit.branches                 8740592177                       # Number of branches committed (Count)
system.cpu.commit.vectorInstructions                0                       # Number of committed Vector instructions. (Count)
system.cpu.commit.floating                         52                       # Number of committed floating point instructions. (Count)
system.cpu.commit.integer                 42134990177                       # Number of committed integer instructions. (Count)
system.cpu.commit.functionCalls             220207368                       # Number of function calls committed. (Count)
system.cpu.commit.committedInstType_0::No_OpClass           19      0.00%      0.00% # Class of committed instruction (Count)
system.cpu.commit.committedInstType_0::IntAlu  33271411875     77.60%     77.60% # Class of committed instruction (Count)
system.cpu.commit.committedInstType_0::IntMult   1137949988      2.65%     80.25% # Class of committed instruction (Count)
system.cpu.commit.committedInstType_0::IntDiv          264      0.00%     80.25% # Class of committed instruction (Count)
system.cpu.commit.committedInstType_0::FloatAdd            0      0.00%     80.25% # Class of committed instruction (Count)
system.cpu.commit.committedInstType_0::FloatCmp            6      0.00%     80.25% # Class of committed instruction (Count)
system.cpu.commit.committedInstType_0::FloatCvt           19      0.00%     80.25% # Class of committed instruction (Count)
system.cpu.commit.committedInstType_0::FloatMult            0      0.00%     80.25% # Class of committed instruction (Count)
system.cpu.commit.committedInstType_0::FloatMultAcc            0      0.00%     80.25% # Class of committed instruction (Count)
system.cpu.commit.committedInstType_0::FloatDiv           11      0.00%     80.25% # Class of committed instruction (Count)
system.cpu.commit.committedInstType_0::FloatMisc            0      0.00%     80.25% # Class of committed instruction (Count)
system.cpu.commit.committedInstType_0::FloatSqrt            0      0.00%     80.25% # Class of committed instruction (Count)
system.cpu.commit.committedInstType_0::SimdAdd            0      0.00%     80.25% # Class of committed instruction (Count)
system.cpu.commit.committedInstType_0::SimdAddAcc            0      0.00%     80.25% # Class of committed instruction (Count)
system.cpu.commit.committedInstType_0::SimdAlu            0      0.00%     80.25% # Class of committed instruction (Count)
system.cpu.commit.committedInstType_0::SimdCmp            0      0.00%     80.25% # Class of committed instruction (Count)
system.cpu.commit.committedInstType_0::SimdCvt            0      0.00%     80.25% # Class of committed instruction (Count)
system.cpu.commit.committedInstType_0::SimdMisc            0      0.00%     80.25% # Class of committed instruction (Count)
system.cpu.commit.committedInstType_0::SimdMult            0      0.00%     80.25% # Class of committed instruction (Count)
system.cpu.commit.committedInstType_0::SimdMultAcc            0      0.00%     80.25% # Class of committed instruction (Count)
system.cpu.commit.committedInstType_0::SimdShift            0      0.00%     80.25% # Class of committed instruction (Count)
system.cpu.commit.committedInstType_0::SimdShiftAcc            0      0.00%     80.25% # Class of committed instruction (Count)
system.cpu.commit.committedInstType_0::SimdDiv            0      0.00%     80.25% # Class of committed instruction (Count)
system.cpu.commit.committedInstType_0::SimdSqrt            0      0.00%     80.25% # Class of committed instruction (Count)
system.cpu.commit.committedInstType_0::SimdFloatAdd            0      0.00%     80.25% # Class of committed instruction (Count)
system.cpu.commit.committedInstType_0::SimdFloatAlu            0      0.00%     80.25% # Class of committed instruction (Count)
system.cpu.commit.committedInstType_0::SimdFloatCmp            0      0.00%     80.25% # Class of committed instruction (Count)
system.cpu.commit.committedInstType_0::SimdFloatCvt            0      0.00%     80.25% # Class of committed instruction (Count)
system.cpu.commit.committedInstType_0::SimdFloatDiv            0      0.00%     80.25% # Class of committed instruction (Count)
system.cpu.commit.committedInstType_0::SimdFloatMisc            0      0.00%     80.25% # Class of committed instruction (Count)
system.cpu.commit.committedInstType_0::SimdFloatMult            0      0.00%     80.25% # Class of committed instruction (Count)
system.cpu.commit.committedInstType_0::SimdFloatMultAcc            0      0.00%     80.25% # Class of committed instruction (Count)
system.cpu.commit.committedInstType_0::SimdFloatSqrt            0      0.00%     80.25% # Class of committed instruction (Count)
system.cpu.commit.committedInstType_0::SimdReduceAdd            0      0.00%     80.25% # Class of committed instruction (Count)
system.cpu.commit.committedInstType_0::SimdReduceAlu            0      0.00%     80.25% # Class of committed instruction (Count)
system.cpu.commit.committedInstType_0::SimdReduceCmp            0      0.00%     80.25% # Class of committed instruction (Count)
system.cpu.commit.committedInstType_0::SimdFloatReduceAdd            0      0.00%     80.25% # Class of committed instruction (Count)
system.cpu.commit.committedInstType_0::SimdFloatReduceCmp            0      0.00%     80.25% # Class of committed instruction (Count)
system.cpu.commit.committedInstType_0::SimdAes            0      0.00%     80.25% # Class of committed instruction (Count)
system.cpu.commit.committedInstType_0::SimdAesMix            0      0.00%     80.25% # Class of committed instruction (Count)
system.cpu.commit.committedInstType_0::SimdSha1Hash            0      0.00%     80.25% # Class of committed instruction (Count)
system.cpu.commit.committedInstType_0::SimdSha1Hash2            0      0.00%     80.25% # Class of committed instruction (Count)
system.cpu.commit.committedInstType_0::SimdSha256Hash            0      0.00%     80.25% # Class of committed instruction (Count)
system.cpu.commit.committedInstType_0::SimdSha256Hash2            0      0.00%     80.25% # Class of committed instruction (Count)
system.cpu.commit.committedInstType_0::SimdShaSigma2            0      0.00%     80.25% # Class of committed instruction (Count)
system.cpu.commit.committedInstType_0::SimdShaSigma3            0      0.00%     80.25% # Class of committed instruction (Count)
system.cpu.commit.committedInstType_0::SimdPredAlu            0      0.00%     80.25% # Class of committed instruction (Count)
system.cpu.commit.committedInstType_0::MemRead   6653857708     15.52%     95.77% # Class of committed instruction (Count)
system.cpu.commit.committedInstType_0::MemWrite   1812426070      4.23%    100.00% # Class of committed instruction (Count)
system.cpu.commit.committedInstType_0::FloatMemRead           15      0.00%    100.00% # Class of committed instruction (Count)
system.cpu.commit.committedInstType_0::FloatMemWrite            1      0.00%    100.00% # Class of committed instruction (Count)
system.cpu.commit.committedInstType_0::IprAccess            0      0.00%    100.00% # Class of committed instruction (Count)
system.cpu.commit.committedInstType_0::InstPrefetch            0      0.00%    100.00% # Class of committed instruction (Count)
system.cpu.commit.committedInstType_0::total  42875645976                       # Class of committed instruction (Count)
system.cpu.commit.commitEligibleSamples    8512114709                       # number cycles where commit BW limit reached (Cycle)
system.cpu.dcache.demandHits::cpu.data     8090434078                       # number of demand (read+write) hits (Count)
system.cpu.dcache.demandHits::total        8090434078                       # number of demand (read+write) hits (Count)
system.cpu.dcache.overallHits::cpu.data    8090434078                       # number of overall hits (Count)
system.cpu.dcache.overallHits::total       8090434078                       # number of overall hits (Count)
system.cpu.dcache.demandMisses::cpu.data          428                       # number of demand (read+write) misses (Count)
system.cpu.dcache.demandMisses::total             428                       # number of demand (read+write) misses (Count)
system.cpu.dcache.overallMisses::cpu.data          428                       # number of overall misses (Count)
system.cpu.dcache.overallMisses::total            428                       # number of overall misses (Count)
system.cpu.dcache.demandMissLatency::cpu.data     34157000                       # number of demand (read+write) miss ticks (Tick)
system.cpu.dcache.demandMissLatency::total     34157000                       # number of demand (read+write) miss ticks (Tick)
system.cpu.dcache.overallMissLatency::cpu.data     34157000                       # number of overall miss ticks (Tick)
system.cpu.dcache.overallMissLatency::total     34157000                       # number of overall miss ticks (Tick)
system.cpu.dcache.demandAccesses::cpu.data   8090434506                       # number of demand (read+write) accesses (Count)
system.cpu.dcache.demandAccesses::total    8090434506                       # number of demand (read+write) accesses (Count)
system.cpu.dcache.overallAccesses::cpu.data   8090434506                       # number of overall (read+write) accesses (Count)
system.cpu.dcache.overallAccesses::total   8090434506                       # number of overall (read+write) accesses (Count)
system.cpu.dcache.demandMissRate::cpu.data     0.000000                       # miss rate for demand accesses (Ratio)
system.cpu.dcache.demandMissRate::total      0.000000                       # miss rate for demand accesses (Ratio)
system.cpu.dcache.overallMissRate::cpu.data     0.000000                       # miss rate for overall accesses (Ratio)
system.cpu.dcache.overallMissRate::total     0.000000                       # miss rate for overall accesses (Ratio)
system.cpu.dcache.demandAvgMissLatency::cpu.data 79806.074766                       # average overall miss latency in ticks ((Tick/Count))
system.cpu.dcache.demandAvgMissLatency::total 79806.074766                       # average overall miss latency in ticks ((Tick/Count))
system.cpu.dcache.overallAvgMissLatency::cpu.data 79806.074766                       # average overall miss latency ((Tick/Count))
system.cpu.dcache.overallAvgMissLatency::total 79806.074766                       # average overall miss latency ((Tick/Count))
system.cpu.dcache.blockedCycles::no_mshrs            0                       # number of cycles access was blocked (Cycle)
system.cpu.dcache.blockedCycles::no_targets           47                       # number of cycles access was blocked (Cycle)
system.cpu.dcache.blockedCauses::no_mshrs            0                       # number of times access was blocked (Count)
system.cpu.dcache.blockedCauses::no_targets            1                       # number of times access was blocked (Count)
system.cpu.dcache.avgBlocked::no_mshrs            nan                       # average number of cycles each access was blocked ((Cycle/Count))
system.cpu.dcache.avgBlocked::no_targets           47                       # average number of cycles each access was blocked ((Cycle/Count))
system.cpu.dcache.demandMshrHits::cpu.data          346                       # number of demand (read+write) MSHR hits (Count)
system.cpu.dcache.demandMshrHits::total           346                       # number of demand (read+write) MSHR hits (Count)
system.cpu.dcache.overallMshrHits::cpu.data          346                       # number of overall MSHR hits (Count)
system.cpu.dcache.overallMshrHits::total          346                       # number of overall MSHR hits (Count)
system.cpu.dcache.demandMshrMisses::cpu.data           82                       # number of demand (read+write) MSHR misses (Count)
system.cpu.dcache.demandMshrMisses::total           82                       # number of demand (read+write) MSHR misses (Count)
system.cpu.dcache.overallMshrMisses::cpu.data           82                       # number of overall MSHR misses (Count)
system.cpu.dcache.overallMshrMisses::cpu.dcache.prefetcher          112                       # number of overall MSHR misses (Count)
system.cpu.dcache.overallMshrMisses::total          194                       # number of overall MSHR misses (Count)
system.cpu.dcache.demandMshrMissLatency::cpu.data      6070000                       # number of demand (read+write) MSHR miss ticks (Tick)
system.cpu.dcache.demandMshrMissLatency::total      6070000                       # number of demand (read+write) MSHR miss ticks (Tick)
system.cpu.dcache.overallMshrMissLatency::cpu.data      6070000                       # number of overall MSHR miss ticks (Tick)
system.cpu.dcache.overallMshrMissLatency::cpu.dcache.prefetcher      8834877                       # number of overall MSHR miss ticks (Tick)
system.cpu.dcache.overallMshrMissLatency::total     14904877                       # number of overall MSHR miss ticks (Tick)
system.cpu.dcache.demandMshrMissRate::cpu.data     0.000000                       # mshr miss ratio for demand accesses (Ratio)
system.cpu.dcache.demandMshrMissRate::total     0.000000                       # mshr miss ratio for demand accesses (Ratio)
system.cpu.dcache.overallMshrMissRate::cpu.data     0.000000                       # mshr miss ratio for overall accesses (Ratio)
system.cpu.dcache.overallMshrMissRate::cpu.dcache.prefetcher          inf                       # mshr miss ratio for overall accesses (Ratio)
system.cpu.dcache.overallMshrMissRate::total     0.000000                       # mshr miss ratio for overall accesses (Ratio)
system.cpu.dcache.demandAvgMshrMissLatency::cpu.data 74024.390244                       # average overall mshr miss latency ((Tick/Count))
system.cpu.dcache.demandAvgMshrMissLatency::total 74024.390244                       # average overall mshr miss latency ((Tick/Count))
system.cpu.dcache.overallAvgMshrMissLatency::cpu.data 74024.390244                       # average overall mshr miss latency ((Tick/Count))
system.cpu.dcache.overallAvgMshrMissLatency::cpu.dcache.prefetcher 78882.830357                       # average overall mshr miss latency ((Tick/Count))
system.cpu.dcache.overallAvgMshrMissLatency::total 76829.262887                       # average overall mshr miss latency ((Tick/Count))
system.cpu.dcache.replacements                      0                       # number of replacements (Count)
system.cpu.dcache.HardPFReq.mshrMisses::cpu.dcache.prefetcher          112                       # number of HardPFReq MSHR misses (Count)
system.cpu.dcache.HardPFReq.mshrMisses::total          112                       # number of HardPFReq MSHR misses (Count)
system.cpu.dcache.HardPFReq.mshrMissLatency::cpu.dcache.prefetcher      8834877                       # number of HardPFReq MSHR miss ticks (Tick)
system.cpu.dcache.HardPFReq.mshrMissLatency::total      8834877                       # number of HardPFReq MSHR miss ticks (Tick)
system.cpu.dcache.HardPFReq.mshrMissRate::cpu.dcache.prefetcher          inf                       # mshr miss rate for HardPFReq accesses (Ratio)
system.cpu.dcache.HardPFReq.mshrMissRate::total          inf                       # mshr miss rate for HardPFReq accesses (Ratio)
system.cpu.dcache.HardPFReq.avgMshrMissLatency::cpu.dcache.prefetcher 78882.830357                       # average HardPFReq mshr miss latency ((Tick/Count))
system.cpu.dcache.HardPFReq.avgMshrMissLatency::total 78882.830357                       # average HardPFReq mshr miss latency ((Tick/Count))
system.cpu.dcache.ReadReq.hits::cpu.data   6278008272                       # number of ReadReq hits (Count)
system.cpu.dcache.ReadReq.hits::total      6278008272                       # number of ReadReq hits (Count)
system.cpu.dcache.ReadReq.misses::cpu.data          163                       # number of ReadReq misses (Count)
system.cpu.dcache.ReadReq.misses::total           163                       # number of ReadReq misses (Count)
system.cpu.dcache.ReadReq.missLatency::cpu.data     13065000                       # number of ReadReq miss ticks (Tick)
system.cpu.dcache.ReadReq.missLatency::total     13065000                       # number of ReadReq miss ticks (Tick)
system.cpu.dcache.ReadReq.accesses::cpu.data   6278008435                       # number of ReadReq accesses(hits+misses) (Count)
system.cpu.dcache.ReadReq.accesses::total   6278008435                       # number of ReadReq accesses(hits+misses) (Count)
system.cpu.dcache.ReadReq.missRate::cpu.data     0.000000                       # miss rate for ReadReq accesses (Ratio)
system.cpu.dcache.ReadReq.missRate::total     0.000000                       # miss rate for ReadReq accesses (Ratio)
system.cpu.dcache.ReadReq.avgMissLatency::cpu.data 80153.374233                       # average ReadReq miss latency ((Tick/Count))
system.cpu.dcache.ReadReq.avgMissLatency::total 80153.374233                       # average ReadReq miss latency ((Tick/Count))
system.cpu.dcache.ReadReq.mshrHits::cpu.data          119                       # number of ReadReq MSHR hits (Count)
system.cpu.dcache.ReadReq.mshrHits::total          119                       # number of ReadReq MSHR hits (Count)
system.cpu.dcache.ReadReq.mshrMisses::cpu.data           44                       # number of ReadReq MSHR misses (Count)
system.cpu.dcache.ReadReq.mshrMisses::total           44                       # number of ReadReq MSHR misses (Count)
system.cpu.dcache.ReadReq.mshrMissLatency::cpu.data      3762000                       # number of ReadReq MSHR miss ticks (Tick)
system.cpu.dcache.ReadReq.mshrMissLatency::total      3762000                       # number of ReadReq MSHR miss ticks (Tick)
system.cpu.dcache.ReadReq.mshrMissRate::cpu.data     0.000000                       # mshr miss rate for ReadReq accesses (Ratio)
system.cpu.dcache.ReadReq.mshrMissRate::total     0.000000                       # mshr miss rate for ReadReq accesses (Ratio)
system.cpu.dcache.ReadReq.avgMshrMissLatency::cpu.data        85500                       # average ReadReq mshr miss latency ((Tick/Count))
system.cpu.dcache.ReadReq.avgMshrMissLatency::total        85500                       # average ReadReq mshr miss latency ((Tick/Count))
system.cpu.dcache.WriteReq.hits::cpu.data   1812425806                       # number of WriteReq hits (Count)
system.cpu.dcache.WriteReq.hits::total     1812425806                       # number of WriteReq hits (Count)
system.cpu.dcache.WriteReq.misses::cpu.data          265                       # number of WriteReq misses (Count)
system.cpu.dcache.WriteReq.misses::total          265                       # number of WriteReq misses (Count)
system.cpu.dcache.WriteReq.missLatency::cpu.data     21092000                       # number of WriteReq miss ticks (Tick)
system.cpu.dcache.WriteReq.missLatency::total     21092000                       # number of WriteReq miss ticks (Tick)
system.cpu.dcache.WriteReq.accesses::cpu.data   1812426071                       # number of WriteReq accesses(hits+misses) (Count)
system.cpu.dcache.WriteReq.accesses::total   1812426071                       # number of WriteReq accesses(hits+misses) (Count)
system.cpu.dcache.WriteReq.missRate::cpu.data     0.000000                       # miss rate for WriteReq accesses (Ratio)
system.cpu.dcache.WriteReq.missRate::total     0.000000                       # miss rate for WriteReq accesses (Ratio)
system.cpu.dcache.WriteReq.avgMissLatency::cpu.data 79592.452830                       # average WriteReq miss latency ((Tick/Count))
system.cpu.dcache.WriteReq.avgMissLatency::total 79592.452830                       # average WriteReq miss latency ((Tick/Count))
system.cpu.dcache.WriteReq.mshrHits::cpu.data          227                       # number of WriteReq MSHR hits (Count)
system.cpu.dcache.WriteReq.mshrHits::total          227                       # number of WriteReq MSHR hits (Count)
system.cpu.dcache.WriteReq.mshrMisses::cpu.data           38                       # number of WriteReq MSHR misses (Count)
system.cpu.dcache.WriteReq.mshrMisses::total           38                       # number of WriteReq MSHR misses (Count)
system.cpu.dcache.WriteReq.mshrMissLatency::cpu.data      2308000                       # number of WriteReq MSHR miss ticks (Tick)
system.cpu.dcache.WriteReq.mshrMissLatency::total      2308000                       # number of WriteReq MSHR miss ticks (Tick)
system.cpu.dcache.WriteReq.mshrMissRate::cpu.data     0.000000                       # mshr miss rate for WriteReq accesses (Ratio)
system.cpu.dcache.WriteReq.mshrMissRate::total     0.000000                       # mshr miss rate for WriteReq accesses (Ratio)
system.cpu.dcache.WriteReq.avgMshrMissLatency::cpu.data 60736.842105                       # average WriteReq mshr miss latency ((Tick/Count))
system.cpu.dcache.WriteReq.avgMshrMissLatency::total 60736.842105                       # average WriteReq mshr miss latency ((Tick/Count))
system.cpu.dcache.power_state.pwrStateResidencyTicks::UNDEFINED 17136216522000                       # Cumulative time (in ticks) in various power states (Tick)
system.cpu.dcache.prefetcher.demandMshrMisses           82                       # demands not covered by prefetchs (Count)
system.cpu.dcache.prefetcher.pfIssued             586                       # number of hwpf issued (Count)
system.cpu.dcache.prefetcher.pfUseful              61                       # number of useful prefetch (Count)
system.cpu.dcache.prefetcher.pfUsefulButMiss            0                       # number of hit on prefetch but cache block is not in an usable state (Count)
system.cpu.dcache.prefetcher.accuracy        0.104096                       # accuracy of the prefetcher (Count)
system.cpu.dcache.prefetcher.coverage        0.426573                       # coverage brought by this prefetcher (Count)
system.cpu.dcache.prefetcher.pfHitInCache          233                       # number of prefetches hitting in cache (Count)
system.cpu.dcache.prefetcher.pfHitInMSHR          241                       # number of prefetches hitting in a MSHR (Count)
system.cpu.dcache.prefetcher.pfHitInWB              0                       # number of prefetches hit in the Write Buffer (Count)
system.cpu.dcache.prefetcher.pfLate               474                       # number of late prefetches (hitting in cache, MSHR or WB) (Count)
system.cpu.dcache.prefetcher.pfIdentified          893                       # number of prefetch candidates identified (Count)
system.cpu.dcache.prefetcher.pfBufferHit          201                       # number of redundant prefetches already in prefetch queue (Count)
system.cpu.dcache.prefetcher.pfInCache              0                       # number of redundant prefetches already in cache/mshr dropped (Count)
system.cpu.dcache.prefetcher.pfRemovedDemand            1                       # number of prefetches dropped due to a demand for the same address (Count)
system.cpu.dcache.prefetcher.pfRemovedFull            0                       # number of prefetches dropped due to prefetch queue size (Count)
system.cpu.dcache.prefetcher.pfSpanPage             9                       # number of prefetches that crossed the page (Count)
system.cpu.dcache.prefetcher.pfUsefulSpanPage            0                       # number of prefetches that is useful and crossed the page (Count)
system.cpu.dcache.prefetcher.ampm.power_state.pwrStateResidencyTicks::UNDEFINED 17136216522000                       # Cumulative time (in ticks) in various power states (Tick)
system.cpu.dcache.prefetcher.power_state.pwrStateResidencyTicks::UNDEFINED 17136216522000                       # Cumulative time (in ticks) in various power states (Tick)
system.cpu.dcache.tags.tagsInUse            85.000594                       # Average ticks per tags in use ((Tick/Count))
system.cpu.dcache.tags.totalRefs           8090434272                       # Total number of references to valid blocks. (Count)
system.cpu.dcache.tags.sampledRefs                194                       # Sample count of references to valid blocks. (Count)
system.cpu.dcache.tags.avgRefs           41703269.443299                       # Average number of references to valid blocks. ((Count/Count))
system.cpu.dcache.tags.warmupTick              630000                       # The tick when the warmup percentage was hit. (Tick)
system.cpu.dcache.tags.occupancies::cpu.data    36.000264                       # Average occupied blocks per tick, per requestor ((Count/Tick))
system.cpu.dcache.tags.occupancies::cpu.dcache.prefetcher    49.000329                       # Average occupied blocks per tick, per requestor ((Count/Tick))
system.cpu.dcache.tags.avgOccs::cpu.data     0.070313                       # Average percentage of cache occupancy ((Ratio/Tick))
system.cpu.dcache.tags.avgOccs::cpu.dcache.prefetcher     0.095704                       # Average percentage of cache occupancy ((Ratio/Tick))
system.cpu.dcache.tags.avgOccs::total        0.166017                       # Average percentage of cache occupancy ((Ratio/Tick))
system.cpu.dcache.tags.occupanciesTaskId::1022          112                       # Occupied blocks per task id (Count)
system.cpu.dcache.tags.occupanciesTaskId::1024           82                       # Occupied blocks per task id (Count)
system.cpu.dcache.tags.ageTaskId_1022::1           31                       # Occupied blocks per task id, per block age (Count)
system.cpu.dcache.tags.ageTaskId_1022::2           32                       # Occupied blocks per task id, per block age (Count)
system.cpu.dcache.tags.ageTaskId_1022::4           49                       # Occupied blocks per task id, per block age (Count)
system.cpu.dcache.tags.ageTaskId_1024::0            1                       # Occupied blocks per task id, per block age (Count)
system.cpu.dcache.tags.ageTaskId_1024::1           15                       # Occupied blocks per task id, per block age (Count)
system.cpu.dcache.tags.ageTaskId_1024::2           30                       # Occupied blocks per task id, per block age (Count)
system.cpu.dcache.tags.ageTaskId_1024::4           36                       # Occupied blocks per task id, per block age (Count)
system.cpu.dcache.tags.ratioOccsTaskId::1022     0.218750                       # Ratio of occupied blocks and all blocks, per task id (Ratio)
system.cpu.dcache.tags.ratioOccsTaskId::1024     0.160156                       # Ratio of occupied blocks and all blocks, per task id (Ratio)
system.cpu.dcache.tags.tagAccesses        64723476242                       # Number of tag accesses (Count)
system.cpu.dcache.tags.dataAccesses       64723476242                       # Number of data accesses (Count)
system.cpu.dcache.tags.power_state.pwrStateResidencyTicks::UNDEFINED 17136216522000                       # Cumulative time (in ticks) in various power states (Tick)
system.cpu.decode.idleCycles               1888246757                       # Number of cycles decode is idle (Cycle)
system.cpu.decode.blockedCycles            2254748099                       # Number of cycles decode is blocked (Cycle)
system.cpu.decode.runCycles               10925254926                       # Number of cycles decode is running (Cycle)
system.cpu.decode.unblockCycles            1850479607                       # Number of cycles decode is unblocking (Cycle)
system.cpu.decode.squashCycles              217476108                       # Number of cycles decode is squashing (Cycle)
system.cpu.decode.branchResolved           5525429486                       # Number of times decode resolved a branch (Count)
system.cpu.decode.branchMispred              59331628                       # Number of times decode detected a branch misprediction (Count)
system.cpu.decode.decodedInsts            47616124574                       # Number of instructions handled by decode (Count)
system.cpu.decode.squashedInsts            2740049717                       # Number of squashed instructions handled by decode (Count)
system.cpu.dtb_walker_cache.blockedCycles::no_mshrs            0                       # number of cycles access was blocked (Cycle)
system.cpu.dtb_walker_cache.blockedCycles::no_targets            0                       # number of cycles access was blocked (Cycle)
system.cpu.dtb_walker_cache.blockedCauses::no_mshrs            0                       # number of times access was blocked (Count)
system.cpu.dtb_walker_cache.blockedCauses::no_targets            0                       # number of times access was blocked (Count)
system.cpu.dtb_walker_cache.avgBlocked::no_mshrs          nan                       # average number of cycles each access was blocked ((Cycle/Count))
system.cpu.dtb_walker_cache.avgBlocked::no_targets          nan                       # average number of cycles each access was blocked ((Cycle/Count))
system.cpu.dtb_walker_cache.replacements            0                       # number of replacements (Count)
system.cpu.dtb_walker_cache.power_state.pwrStateResidencyTicks::UNDEFINED 17136216522000                       # Cumulative time (in ticks) in various power states (Tick)
system.cpu.dtb_walker_cache.tags.tagsInUse            0                       # Average ticks per tags in use ((Tick/Count))
system.cpu.dtb_walker_cache.tags.totalRefs            0                       # Total number of references to valid blocks. (Count)
system.cpu.dtb_walker_cache.tags.sampledRefs            0                       # Sample count of references to valid blocks. (Count)
system.cpu.dtb_walker_cache.tags.avgRefs          nan                       # Average number of references to valid blocks. ((Count/Count))
system.cpu.dtb_walker_cache.tags.warmupTick            0                       # The tick when the warmup percentage was hit. (Tick)
system.cpu.dtb_walker_cache.tags.tagAccesses            0                       # Number of tag accesses (Count)
system.cpu.dtb_walker_cache.tags.dataAccesses            0                       # Number of data accesses (Count)
system.cpu.dtb_walker_cache.tags.power_state.pwrStateResidencyTicks::UNDEFINED 17136216522000                       # Cumulative time (in ticks) in various power states (Tick)
system.cpu.fetch.icacheStallCycles          136535449                       # Number of cycles fetch is stalled on an Icache miss (Cycle)
system.cpu.fetch.insts                    60559681613                       # Number of instructions fetch has processed (Count)
system.cpu.fetch.branches                 12559952678                       # Number of branches that fetch encountered (Count)
system.cpu.fetch.predictedBranches         7824932628                       # Number of branches that fetch has predicted taken (Count)
system.cpu.fetch.cycles                   16723040221                       # Number of cycles fetch has run and was not squashing or blocked (Cycle)
system.cpu.fetch.squashCycles               553259654                       # Number of cycles fetch has spent squashing (Cycle)
system.cpu.fetch.cacheLines                6452251293                       # Number of cache lines fetched (Count)
system.cpu.fetch.icacheSquashes                   435                       # Number of outstanding Icache misses that were squashed (Count)
system.cpu.fetch.nisnDist::samples        17136205497                       # Number of instructions fetched each cycle (Total) (Count)
system.cpu.fetch.nisnDist::mean              3.534019                       # Number of instructions fetched each cycle (Total) (Count)
system.cpu.fetch.nisnDist::stdev             2.512438                       # Number of instructions fetched each cycle (Total) (Count)
system.cpu.fetch.nisnDist::underflows               0      0.00%      0.00% # Number of instructions fetched each cycle (Total) (Count)
system.cpu.fetch.nisnDist::0               2320877261     13.54%     13.54% # Number of instructions fetched each cycle (Total) (Count)
system.cpu.fetch.nisnDist::1               2650669676     15.47%     29.01% # Number of instructions fetched each cycle (Total) (Count)
system.cpu.fetch.nisnDist::2               1483430189      8.66%     37.67% # Number of instructions fetched each cycle (Total) (Count)
system.cpu.fetch.nisnDist::3               1730694908     10.10%     47.77% # Number of instructions fetched each cycle (Total) (Count)
system.cpu.fetch.nisnDist::4               3096826996     18.07%     65.84% # Number of instructions fetched each cycle (Total) (Count)
system.cpu.fetch.nisnDist::5               2365414425     13.80%     79.64% # Number of instructions fetched each cycle (Total) (Count)
system.cpu.fetch.nisnDist::6                826256598      4.82%     84.47% # Number of instructions fetched each cycle (Total) (Count)
system.cpu.fetch.nisnDist::7                718136414      4.19%     88.66% # Number of instructions fetched each cycle (Total) (Count)
system.cpu.fetch.nisnDist::8               1943899030     11.34%    100.00% # Number of instructions fetched each cycle (Total) (Count)
system.cpu.fetch.nisnDist::overflows                0      0.00%    100.00% # Number of instructions fetched each cycle (Total) (Count)
system.cpu.fetch.nisnDist::min_value                0                       # Number of instructions fetched each cycle (Total) (Count)
system.cpu.fetch.nisnDist::max_value                8                       # Number of instructions fetched each cycle (Total) (Count)
system.cpu.fetch.nisnDist::total          17136205497                       # Number of instructions fetched each cycle (Total) (Count)
system.cpu.fetch.branchRate                  0.732948                       # Number of branch fetches per cycle (Ratio)
system.cpu.fetch.rate                        3.534017                       # Number of inst fetches per cycle ((Count/Cycle))
system.cpu.icache.demandHits::cpu.inst     6452250593                       # number of demand (read+write) hits (Count)
system.cpu.icache.demandHits::total        6452250593                       # number of demand (read+write) hits (Count)
system.cpu.icache.overallHits::cpu.inst    6452250593                       # number of overall hits (Count)
system.cpu.icache.overallHits::total       6452250593                       # number of overall hits (Count)
system.cpu.icache.demandMisses::cpu.inst          700                       # number of demand (read+write) misses (Count)
system.cpu.icache.demandMisses::total             700                       # number of demand (read+write) misses (Count)
system.cpu.icache.overallMisses::cpu.inst          700                       # number of overall misses (Count)
system.cpu.icache.overallMisses::total            700                       # number of overall misses (Count)
system.cpu.icache.demandMissLatency::cpu.inst     41196000                       # number of demand (read+write) miss ticks (Tick)
system.cpu.icache.demandMissLatency::total     41196000                       # number of demand (read+write) miss ticks (Tick)
system.cpu.icache.overallMissLatency::cpu.inst     41196000                       # number of overall miss ticks (Tick)
system.cpu.icache.overallMissLatency::total     41196000                       # number of overall miss ticks (Tick)
system.cpu.icache.demandAccesses::cpu.inst   6452251293                       # number of demand (read+write) accesses (Count)
system.cpu.icache.demandAccesses::total    6452251293                       # number of demand (read+write) accesses (Count)
system.cpu.icache.overallAccesses::cpu.inst   6452251293                       # number of overall (read+write) accesses (Count)
system.cpu.icache.overallAccesses::total   6452251293                       # number of overall (read+write) accesses (Count)
system.cpu.icache.demandMissRate::cpu.inst     0.000000                       # miss rate for demand accesses (Ratio)
system.cpu.icache.demandMissRate::total      0.000000                       # miss rate for demand accesses (Ratio)
system.cpu.icache.overallMissRate::cpu.inst     0.000000                       # miss rate for overall accesses (Ratio)
system.cpu.icache.overallMissRate::total     0.000000                       # miss rate for overall accesses (Ratio)
system.cpu.icache.demandAvgMissLatency::cpu.inst 58851.428571                       # average overall miss latency in ticks ((Tick/Count))
system.cpu.icache.demandAvgMissLatency::total 58851.428571                       # average overall miss latency in ticks ((Tick/Count))
system.cpu.icache.overallAvgMissLatency::cpu.inst 58851.428571                       # average overall miss latency ((Tick/Count))
system.cpu.icache.overallAvgMissLatency::total 58851.428571                       # average overall miss latency ((Tick/Count))
system.cpu.icache.blockedCycles::no_mshrs            0                       # number of cycles access was blocked (Cycle)
system.cpu.icache.blockedCycles::no_targets            0                       # number of cycles access was blocked (Cycle)
system.cpu.icache.blockedCauses::no_mshrs            0                       # number of times access was blocked (Count)
system.cpu.icache.blockedCauses::no_targets            0                       # number of times access was blocked (Count)
system.cpu.icache.avgBlocked::no_mshrs            nan                       # average number of cycles each access was blocked ((Cycle/Count))
system.cpu.icache.avgBlocked::no_targets          nan                       # average number of cycles each access was blocked ((Cycle/Count))
system.cpu.icache.writebacks::writebacks           43                       # number of writebacks (Count)
system.cpu.icache.writebacks::total                43                       # number of writebacks (Count)
system.cpu.icache.demandMshrHits::cpu.inst          192                       # number of demand (read+write) MSHR hits (Count)
system.cpu.icache.demandMshrHits::total           192                       # number of demand (read+write) MSHR hits (Count)
system.cpu.icache.overallMshrHits::cpu.inst          192                       # number of overall MSHR hits (Count)
system.cpu.icache.overallMshrHits::total          192                       # number of overall MSHR hits (Count)
system.cpu.icache.demandMshrMisses::cpu.inst          508                       # number of demand (read+write) MSHR misses (Count)
system.cpu.icache.demandMshrMisses::total          508                       # number of demand (read+write) MSHR misses (Count)
system.cpu.icache.overallMshrMisses::cpu.inst          508                       # number of overall MSHR misses (Count)
system.cpu.icache.overallMshrMisses::total          508                       # number of overall MSHR misses (Count)
system.cpu.icache.demandMshrMissLatency::cpu.inst     31210000                       # number of demand (read+write) MSHR miss ticks (Tick)
system.cpu.icache.demandMshrMissLatency::total     31210000                       # number of demand (read+write) MSHR miss ticks (Tick)
system.cpu.icache.overallMshrMissLatency::cpu.inst     31210000                       # number of overall MSHR miss ticks (Tick)
system.cpu.icache.overallMshrMissLatency::total     31210000                       # number of overall MSHR miss ticks (Tick)
system.cpu.icache.demandMshrMissRate::cpu.inst     0.000000                       # mshr miss ratio for demand accesses (Ratio)
system.cpu.icache.demandMshrMissRate::total     0.000000                       # mshr miss ratio for demand accesses (Ratio)
system.cpu.icache.overallMshrMissRate::cpu.inst     0.000000                       # mshr miss ratio for overall accesses (Ratio)
system.cpu.icache.overallMshrMissRate::total     0.000000                       # mshr miss ratio for overall accesses (Ratio)
system.cpu.icache.demandAvgMshrMissLatency::cpu.inst 61437.007874                       # average overall mshr miss latency ((Tick/Count))
system.cpu.icache.demandAvgMshrMissLatency::total 61437.007874                       # average overall mshr miss latency ((Tick/Count))
system.cpu.icache.overallAvgMshrMissLatency::cpu.inst 61437.007874                       # average overall mshr miss latency ((Tick/Count))
system.cpu.icache.overallAvgMshrMissLatency::total 61437.007874                       # average overall mshr miss latency ((Tick/Count))
system.cpu.icache.replacements                     43                       # number of replacements (Count)
system.cpu.icache.ReadReq.hits::cpu.inst   6452250593                       # number of ReadReq hits (Count)
system.cpu.icache.ReadReq.hits::total      6452250593                       # number of ReadReq hits (Count)
system.cpu.icache.ReadReq.misses::cpu.inst          700                       # number of ReadReq misses (Count)
system.cpu.icache.ReadReq.misses::total           700                       # number of ReadReq misses (Count)
system.cpu.icache.ReadReq.missLatency::cpu.inst     41196000                       # number of ReadReq miss ticks (Tick)
system.cpu.icache.ReadReq.missLatency::total     41196000                       # number of ReadReq miss ticks (Tick)
system.cpu.icache.ReadReq.accesses::cpu.inst   6452251293                       # number of ReadReq accesses(hits+misses) (Count)
system.cpu.icache.ReadReq.accesses::total   6452251293                       # number of ReadReq accesses(hits+misses) (Count)
system.cpu.icache.ReadReq.missRate::cpu.inst     0.000000                       # miss rate for ReadReq accesses (Ratio)
system.cpu.icache.ReadReq.missRate::total     0.000000                       # miss rate for ReadReq accesses (Ratio)
system.cpu.icache.ReadReq.avgMissLatency::cpu.inst 58851.428571                       # average ReadReq miss latency ((Tick/Count))
system.cpu.icache.ReadReq.avgMissLatency::total 58851.428571                       # average ReadReq miss latency ((Tick/Count))
system.cpu.icache.ReadReq.mshrHits::cpu.inst          192                       # number of ReadReq MSHR hits (Count)
system.cpu.icache.ReadReq.mshrHits::total          192                       # number of ReadReq MSHR hits (Count)
system.cpu.icache.ReadReq.mshrMisses::cpu.inst          508                       # number of ReadReq MSHR misses (Count)
system.cpu.icache.ReadReq.mshrMisses::total          508                       # number of ReadReq MSHR misses (Count)
system.cpu.icache.ReadReq.mshrMissLatency::cpu.inst     31210000                       # number of ReadReq MSHR miss ticks (Tick)
system.cpu.icache.ReadReq.mshrMissLatency::total     31210000                       # number of ReadReq MSHR miss ticks (Tick)
system.cpu.icache.ReadReq.mshrMissRate::cpu.inst     0.000000                       # mshr miss rate for ReadReq accesses (Ratio)
system.cpu.icache.ReadReq.mshrMissRate::total     0.000000                       # mshr miss rate for ReadReq accesses (Ratio)
system.cpu.icache.ReadReq.avgMshrMissLatency::cpu.inst 61437.007874                       # average ReadReq mshr miss latency ((Tick/Count))
system.cpu.icache.ReadReq.avgMshrMissLatency::total 61437.007874                       # average ReadReq mshr miss latency ((Tick/Count))
system.cpu.icache.power_state.pwrStateResidencyTicks::UNDEFINED 17136216522000                       # Cumulative time (in ticks) in various power states (Tick)
system.cpu.icache.tags.tagsInUse           127.352212                       # Average ticks per tags in use ((Tick/Count))
system.cpu.icache.tags.totalRefs           6452251101                       # Total number of references to valid blocks. (Count)
system.cpu.icache.tags.sampledRefs                508                       # Sample count of references to valid blocks. (Count)
system.cpu.icache.tags.avgRefs           12701281.694882                       # Average number of references to valid blocks. ((Count/Count))
system.cpu.icache.tags.warmupTick              100000                       # The tick when the warmup percentage was hit. (Tick)
system.cpu.icache.tags.occupancies::cpu.inst   127.352212                       # Average occupied blocks per tick, per requestor ((Count/Tick))
system.cpu.icache.tags.avgOccs::cpu.inst     0.248735                       # Average percentage of cache occupancy ((Ratio/Tick))
[...]
system.mem_ctrls.dram.perBankWrBursts::11            0                       # Per bank write bursts (Count)
system.mem_ctrls.dram.perBankWrBursts::12            0                       # Per bank write bursts (Count)
system.mem_ctrls.dram.perBankWrBursts::13            0                       # Per bank write bursts (Count)
system.mem_ctrls.dram.perBankWrBursts::14            0                       # Per bank write bursts (Count)
system.mem_ctrls.dram.perBankWrBursts::15            0                       # Per bank write bursts (Count)
system.mem_ctrls.dram.totQLat                11141045                       # Total ticks spent queuing (Tick)
system.mem_ctrls.dram.totBusLat               3890000                       # Total ticks spent in databus transfers (Tick)
system.mem_ctrls.dram.totMemAccLat           25728545                       # Total ticks spent from burst creation until serviced by the DRAM (Tick)
system.mem_ctrls.dram.avgQLat                14320.11                       # Average queueing delay per DRAM burst ((Tick/Count))
system.mem_ctrls.dram.avgBusLat               5000.00                       # Average bus latency per DRAM burst ((Tick/Count))
system.mem_ctrls.dram.avgMemAccLat           33070.11                       # Average memory access latency per DRAM burst ((Tick/Count))
system.mem_ctrls.dram.readRowHits                 687                       # Number of row buffer hits during reads (Count)
system.mem_ctrls.dram.writeRowHits                  0                       # Number of row buffer hits during writes (Count)
system.mem_ctrls.dram.readRowHitRate            88.30                       # Row buffer hit rate for reads (Ratio)
system.mem_ctrls.dram.writeRowHitRate             nan                       # Row buffer hit rate for writes (Ratio)
system.mem_ctrls.dram.bytesPerActivate::samples           85                       # Bytes accessed per row activation (Byte)
system.mem_ctrls.dram.bytesPerActivate::mean   571.482353                       # Bytes accessed per row activation (Byte)
system.mem_ctrls.dram.bytesPerActivate::gmean   400.062781                       # Bytes accessed per row activation (Byte)
system.mem_ctrls.dram.bytesPerActivate::stdev   391.144737                       # Bytes accessed per row activation (Byte)
system.mem_ctrls.dram.bytesPerActivate::0-127            9     10.59%     10.59% # Bytes accessed per row activation (Byte)
system.mem_ctrls.dram.bytesPerActivate::128-255           17     20.00%     30.59% # Bytes accessed per row activation (Byte)
system.mem_ctrls.dram.bytesPerActivate::256-383           12     14.12%     44.71% # Bytes accessed per row activation (Byte)
system.mem_ctrls.dram.bytesPerActivate::384-511            3      3.53%     48.24% # Bytes accessed per row activation (Byte)
system.mem_ctrls.dram.bytesPerActivate::512-639            4      4.71%     52.94% # Bytes accessed per row activation (Byte)
system.mem_ctrls.dram.bytesPerActivate::640-767            4      4.71%     57.65% # Bytes accessed per row activation (Byte)
system.mem_ctrls.dram.bytesPerActivate::768-895            3      3.53%     61.18% # Bytes accessed per row activation (Byte)
system.mem_ctrls.dram.bytesPerActivate::896-1023            4      4.71%     65.88% # Bytes accessed per row activation (Byte)
system.mem_ctrls.dram.bytesPerActivate::1024-1151           29     34.12%    100.00% # Bytes accessed per row activation (Byte)
system.mem_ctrls.dram.bytesPerActivate::total           85                       # Bytes accessed per row activation (Byte)
system.mem_ctrls.dram.bytesRead                 49792                       # Total bytes read (Byte)
system.mem_ctrls.dram.bytesWritten                  0                       # Total bytes written (Byte)
system.mem_ctrls.dram.avgRdBW                0.002906                       # Average DRAM read bandwidth in MiBytes/s ((Byte/Second))
system.mem_ctrls.dram.avgWrBW                       0                       # Average DRAM write bandwidth in MiBytes/s ((Byte/Second))
system.mem_ctrls.dram.peakBW                 12800.00                       # Theoretical peak bandwidth in MiByte/s ((Byte/Second))
system.mem_ctrls.dram.busUtil                    0.00                       # Data bus utilization in percentage (Ratio)
system.mem_ctrls.dram.busUtilRead                0.00                       # Data bus utilization in percentage for reads (Ratio)
system.mem_ctrls.dram.busUtilWrite               0.00                       # Data bus utilization in percentage for writes (Ratio)
system.mem_ctrls.dram.pageHitRate               88.30                       # Row buffer hit rate, read and write combined (Ratio)
system.mem_ctrls.dram.power_state.pwrStateResidencyTicks::UNDEFINED 17136216522000                       # Cumulative time (in ticks) in various power states (Tick)
system.mem_ctrls.dram.rank0.actEnergy          514080                       # Energy for activate commands per rank (pJ) (Joule)
system.mem_ctrls.dram.rank0.preEnergy          254265                       # Energy for precharge commands per rank (pJ) (Joule)
system.mem_ctrls.dram.rank0.readEnergy        4348260                       # Energy for read commands per rank (pJ) (Joule)
system.mem_ctrls.dram.rank0.writeEnergy             0                       # Energy for write commands per rank (pJ) (Joule)
system.mem_ctrls.dram.rank0.refreshEnergy 1352718151200.000244                       # Energy for refresh commands per rank (pJ) (Joule)
system.mem_ctrls.dram.rank0.actBackEnergy 247170471990                       # Energy for active background per rank (pJ) (Joule)
system.mem_ctrls.dram.rank0.preBackEnergy 6372163589280                       # Energy for precharge background per rank (pJ) (Joule)
system.mem_ctrls.dram.rank0.actPowerDownEnergy            0                       # Energy for active power-down per rank (pJ) (Joule)
system.mem_ctrls.dram.rank0.prePowerDownEnergy            0                       # Energy for precharge power-down per rank (pJ) (Joule)
system.mem_ctrls.dram.rank0.selfRefreshEnergy            0                       # Energy for self refresh per rank (pJ) (Joule)
system.mem_ctrls.dram.rank0.totalEnergy  7972057329075                       # Total energy per rank (pJ) (Joule)
system.mem_ctrls.dram.rank0.averagePower   465.216888                       # Core power per rank (mW) (Watt)
system.mem_ctrls.dram.rank0.totalIdleTime            0                       # Total Idle time Per DRAM Rank (Tick)
system.mem_ctrls.dram.rank0.pwrStateTime::IDLE 16563914363500                       # Time in different power states (Tick)
system.mem_ctrls.dram.rank0.pwrStateTime::REF 572215800000                       # Time in different power states (Tick)
system.mem_ctrls.dram.rank0.pwrStateTime::SREF            0                       # Time in different power states (Tick)
system.mem_ctrls.dram.rank0.pwrStateTime::PRE_PDN            0                       # Time in different power states (Tick)
system.mem_ctrls.dram.rank0.pwrStateTime::ACT     86358500                       # Time in different power states (Tick)
system.mem_ctrls.dram.rank0.pwrStateTime::ACT_PDN            0                       # Time in different power states (Tick)
system.mem_ctrls.dram.rank1.actEnergy          135660                       # Energy for activate commands per rank (pJ) (Joule)
system.mem_ctrls.dram.rank1.preEnergy           68310                       # Energy for precharge commands per rank (pJ) (Joule)
system.mem_ctrls.dram.rank1.readEnergy        1206660                       # Energy for read commands per rank (pJ) (Joule)
system.mem_ctrls.dram.rank1.writeEnergy             0                       # Energy for write commands per rank (pJ) (Joule)
system.mem_ctrls.dram.rank1.refreshEnergy 1352718151200.000244                       # Energy for refresh commands per rank (pJ) (Joule)
system.mem_ctrls.dram.rank1.actBackEnergy 247149561540                       # Energy for active background per rank (pJ) (Joule)
system.mem_ctrls.dram.rank1.preBackEnergy 6372181198080                       # Energy for precharge background per rank (pJ) (Joule)
system.mem_ctrls.dram.rank1.actPowerDownEnergy            0                       # Energy for active power-down per rank (pJ) (Joule)
system.mem_ctrls.dram.rank1.prePowerDownEnergy            0                       # Energy for precharge power-down per rank (pJ) (Joule)
system.mem_ctrls.dram.rank1.selfRefreshEnergy            0                       # Energy for self refresh per rank (pJ) (Joule)
system.mem_ctrls.dram.rank1.totalEnergy  7972050321450                       # Total energy per rank (pJ) (Joule)
system.mem_ctrls.dram.rank1.averagePower   465.216479                       # Core power per rank (mW) (Watt)
system.mem_ctrls.dram.rank1.totalIdleTime            0                       # Total Idle time Per DRAM Rank (Tick)
system.mem_ctrls.dram.rank1.pwrStateTime::IDLE 16563960288750                       # Time in different power states (Tick)
system.mem_ctrls.dram.rank1.pwrStateTime::REF 572215800000                       # Time in different power states (Tick)
system.mem_ctrls.dram.rank1.pwrStateTime::SREF            0                       # Time in different power states (Tick)
system.mem_ctrls.dram.rank1.pwrStateTime::PRE_PDN            0                       # Time in different power states (Tick)
system.mem_ctrls.dram.rank1.pwrStateTime::ACT     40433250                       # Time in different power states (Tick)
system.mem_ctrls.dram.rank1.pwrStateTime::ACT_PDN            0                       # Time in different power states (Tick)
system.mem_ctrls.power_state.pwrStateResidencyTicks::UNDEFINED 17136216522000                       # Cumulative time (in ticks) in various power states (Tick)
system.membus.transDist::ReadResp                 758                       # Transaction distribution (Count)
system.membus.transDist::ReadExReq                 20                       # Transaction distribution (Count)
system.membus.transDist::ReadExResp                20                       # Transaction distribution (Count)
system.membus.transDist::ReadSharedReq            758                       # Transaction distribution (Count)
system.membus.pktCount_system.l2.mem_side_port::system.mem_ctrls.port         1556                       # Packet count per connected requestor and responder (Count)
system.membus.pktCount_system.l2.mem_side_port::total         1556                       # Packet count per connected requestor and responder (Count)
system.membus.pktCount::total                    1556                       # Packet count per connected requestor and responder (Count)
system.membus.pktSize_system.l2.mem_side_port::system.mem_ctrls.port        49792                       # Cumulative packet size per connected requestor and responder (Byte)
system.membus.pktSize_system.l2.mem_side_port::total        49792                       # Cumulative packet size per connected requestor and responder (Byte)
system.membus.pktSize::total                    49792                       # Cumulative packet size per connected requestor and responder (Byte)
system.membus.snoops                                0                       # Total snoops (Count)
system.membus.snoopTraffic                          0                       # Total snoop traffic (Byte)
system.membus.snoopFanout::samples                778                       # Request fanout histogram (Count)
system.membus.snoopFanout::mean                     0                       # Request fanout histogram (Count)
system.membus.snoopFanout::stdev                    0                       # Request fanout histogram (Count)
system.membus.snoopFanout::underflows               0      0.00%      0.00% # Request fanout histogram (Count)
system.membus.snoopFanout::0                      778    100.00%    100.00% # Request fanout histogram (Count)
system.membus.snoopFanout::1                        0      0.00%    100.00% # Request fanout histogram (Count)
system.membus.snoopFanout::2                        0      0.00%    100.00% # Request fanout histogram (Count)
system.membus.snoopFanout::overflows                0      0.00%    100.00% # Request fanout histogram (Count)
system.membus.snoopFanout::min_value                0                       # Request fanout histogram (Count)
system.membus.snoopFanout::max_value                0                       # Request fanout histogram (Count)
system.membus.snoopFanout::total                  778                       # Request fanout histogram (Count)
system.membus.badaddr_responder.power_state.pwrStateResidencyTicks::UNDEFINED 17136216522000                       # Cumulative time (in ticks) in various power states (Tick)
system.membus.power_state.pwrStateResidencyTicks::UNDEFINED 17136216522000                       # Cumulative time (in ticks) in various power states (Tick)
system.membus.reqLayer1.occupancy              824942                       # Layer occupancy (ticks) (Tick)
system.membus.reqLayer1.utilization               0.0                       # Layer utilization (Ratio)
system.membus.respLayer2.occupancy            4034753                       # Layer occupancy (ticks) (Tick)
system.membus.respLayer2.utilization              0.0                       # Layer utilization (Ratio)
system.membus.snoop_filter.totRequests            778                       # Total number of requests made to the snoop filter. (Count)
system.membus.snoop_filter.hitSingleRequests            0                       # Number of requests hitting in the snoop filter with a single holder of the requested data. (Count)
system.membus.snoop_filter.hitMultiRequests            0                       # Number of requests hitting in the snoop filter with multiple (>1) holders of the requested data. (Count)
system.membus.snoop_filter.totSnoops                0                       # Total number of snoops made to the snoop filter. (Count)
system.membus.snoop_filter.hitSingleSnoops            0                       # Number of snoops hitting in the snoop filter with a single holder of the requested data. (Count)
system.membus.snoop_filter.hitMultiSnoops            0                       # Number of snoops hitting in the snoop filter with multiple (>1) holders of the requested data. (Count)
system.tol2bus.transDist::ReadResp                664                       # Transaction distribution (Count)
system.tol2bus.transDist::WritebackClean           43                       # Transaction distribution (Count)
system.tol2bus.transDist::HardPFReq               550                       # Transaction distribution (Count)
system.tol2bus.transDist::ReadExReq                38                       # Transaction distribution (Count)
system.tol2bus.transDist::ReadExResp               38                       # Transaction distribution (Count)
system.tol2bus.transDist::ReadCleanReq            508                       # Transaction distribution (Count)
system.tol2bus.transDist::ReadSharedReq           156                       # Transaction distribution (Count)
system.tol2bus.pktCount_system.cpu.icache.mem_side_port::system.l2.cpu_side_port         1059                       # Packet count per connected requestor and responder (Count)
system.tol2bus.pktCount_system.cpu.dcache.mem_side_port::system.l2.cpu_side_port          388                       # Packet count per connected requestor and responder (Count)
system.tol2bus.pktCount::total                   1447                       # Packet count per connected requestor and responder (Count)
system.tol2bus.pktSize_system.cpu.icache.mem_side_port::system.l2.cpu_side_port        35264                       # Cumulative packet size per connected requestor and responder (Byte)
system.tol2bus.pktSize_system.cpu.dcache.mem_side_port::system.l2.cpu_side_port        12416                       # Cumulative packet size per connected requestor and responder (Byte)
system.tol2bus.pktSize::total                   47680                       # Cumulative packet size per connected requestor and responder (Byte)
system.tol2bus.snoops                             550                       # Total snoops (Count)
system.tol2bus.snoopTraffic                         0                       # Total snoop traffic (Byte)
system.tol2bus.snoopFanout::samples              1252                       # Request fanout histogram (Count)
system.tol2bus.snoopFanout::mean                    0                       # Request fanout histogram (Count)
system.tol2bus.snoopFanout::stdev                   0                       # Request fanout histogram (Count)
system.tol2bus.snoopFanout::underflows              0      0.00%      0.00% # Request fanout histogram (Count)
system.tol2bus.snoopFanout::0                    1252    100.00%    100.00% # Request fanout histogram (Count)
system.tol2bus.snoopFanout::1                       0      0.00%    100.00% # Request fanout histogram (Count)
system.tol2bus.snoopFanout::2                       0      0.00%    100.00% # Request fanout histogram (Count)
system.tol2bus.snoopFanout::3                       0      0.00%    100.00% # Request fanout histogram (Count)
system.tol2bus.snoopFanout::4                       0      0.00%    100.00% # Request fanout histogram (Count)
system.tol2bus.snoopFanout::overflows               0      0.00%    100.00% # Request fanout histogram (Count)
system.tol2bus.snoopFanout::min_value               0                       # Request fanout histogram (Count)
system.tol2bus.snoopFanout::max_value               0                       # Request fanout histogram (Count)
system.tol2bus.snoopFanout::total                1252                       # Request fanout histogram (Count)
system.tol2bus.power_state.pwrStateResidencyTicks::UNDEFINED 17136216522000                       # Cumulative time (in ticks) in various power states (Tick)
system.tol2bus.reqLayer0.occupancy             836992                       # Layer occupancy (ticks) (Tick)
system.tol2bus.reqLayer0.utilization              0.0                       # Layer utilization (Ratio)
system.tol2bus.respLayer0.occupancy           1524999                       # Layer occupancy (ticks) (Tick)
system.tol2bus.respLayer0.utilization             0.0                       # Layer utilization (Ratio)
system.tol2bus.respLayer1.occupancy            582000                       # Layer occupancy (ticks) (Tick)
system.tol2bus.respLayer1.utilization             0.0                       # Layer utilization (Ratio)
system.tol2bus.snoop_filter.totRequests           745                       # Total number of requests made to the snoop filter. (Count)
system.tol2bus.snoop_filter.hitSingleRequests           43                       # Number of requests hitting in the snoop filter with a single holder of the requested data. (Count)
system.tol2bus.snoop_filter.hitMultiRequests            0                       # Number of requests hitting in the snoop filter with multiple (>1) holders of the requested data. (Count)
system.tol2bus.snoop_filter.totSnoops               0                       # Total number of snoops made to the snoop filter. (Count)
system.tol2bus.snoop_filter.hitSingleSnoops            0                       # Number of snoops hitting in the snoop filter with a single holder of the requested data. (Count)
system.tol2bus.snoop_filter.hitMultiSnoops            0                       # Number of snoops hitting in the snoop filter with multiple (>1) holders of the requested data. (Count)
system.voltage_domain.voltage                       1                       # Voltage in Volts (Volt)
system.workload.inst.arm                            0                       # number of arm instructions executed (Count)
system.workload.inst.quiesce                        0                       # number of quiesce instructions executed (Count)

---------- End Simulation Statistics   ----------
